version 2
run WithChannelSwitching-0-20230726-17:04:42-4360
attr configname WithChannelSwitching
attr datetime 20230726-17:04:42
attr experiment WithChannelSwitching
attr inifile omnetpp.ini
attr iterationvars ""
attr iterationvarsf ""
attr measurement ""
attr network IntersectionScenario
attr processid 4360
attr repetition 0
attr replication #0
attr resultdir results
attr runnumber 0
attr seedset 0
param *.**.nic.mac1609_4.useServiceChannel true
param *.node[*].appl.dataOnSch true
param *.rsu[*].appl.dataOnSch true
param **.debug false
param **.coreDebug false
param *.playgroundSizeX 1000m
param *.playgroundSizeY 1000m
param *.playgroundSizeZ 100m
param *.annotations.draw true
param *.manager.updateInterval 1s
param *.manager.host "\"localhost\""
param *.manager.port 9999
param *.manager.autoShutdown true
param *.manager.launchConfig "xmldoc(\"mynet1.launchd.xml\")"
param *.rsu[0].mobility.x 16
param *.rsu[0].mobility.y 246
param *.rsu[0].mobility.z 0
param *.rsu[1].mobility.x 46
param *.rsu[1].mobility.y 246
param *.rsu[1].mobility.z 0
param *.rsu[2].mobility.x 76
param *.rsu[2].mobility.y 246
param *.rsu[2].mobility.z 0
param *.rsu[3].mobility.x 130
param *.rsu[3].mobility.y 236
param *.rsu[3].mobility.z 0
param *.rsu[4].mobility.x 130
param *.rsu[4].mobility.y 206
param *.rsu[4].mobility.z 0
param *.rsu[5].mobility.x 130
param *.rsu[5].mobility.y 186
param *.rsu[5].mobility.z 0
param *.rsu[6].mobility.x 130
param *.rsu[6].mobility.y 156
param *.rsu[6].mobility.z 0
param *.rsu[7].mobility.x 156
param *.rsu[7].mobility.y 156
param *.rsu[7].mobility.z 0
param *.rsu[8].mobility.x 186
param *.rsu[8].mobility.y 156
param *.rsu[8].mobility.z 0
param *.rsu[9].mobility.x 216
param *.rsu[9].mobility.y 156
param *.rsu[9].mobility.z 0
param *.rsu[10].mobility.x 256
param *.rsu[10].mobility.y 146
param *.rsu[10].mobility.z 0
param *.rsu[11].mobility.x 256
param *.rsu[11].mobility.y 106
param *.rsu[11].mobility.z 0
param *.rsu[12].mobility.x 256
param *.rsu[12].mobility.y 76
param *.rsu[12].mobility.z 0
param *.rsu[*].applType "\"IntersectionApp\""
param *.rsu[*].appl.headerLength "80 bit"
param *.rsu[*].appl.sendBeacons false
param *.rsu[*].appl.dataOnSch false
param *.rsu[*].appl.beaconInterval 1s
param *.rsu[*].appl.beaconUserPriority 1
param *.rsu[*].appl.dataUserPriority 1
param *.connectionManager.sendDirect true
param *.connectionManager.maxInterfDist 30m
param *.connectionManager.drawMaxIntfDist true
param *.**.nic.mac1609_4.useServiceChannel false
param *.**.nic.mac1609_4.txPower 10mW
param *.**.nic.mac1609_4.bitrate 6Mbps
param *.**.nic.phy80211p.sensitivity -89dBm
param *.**.nic.phy80211p.useThermalNoise true
param *.**.nic.phy80211p.thermalNoise -110dBm
param *.**.nic.phy80211p.decider "xmldoc(\"config.xml\")"
param *.**.nic.phy80211p.analogueModels "xmldoc(\"config.xml\")"
param *.**.nic.phy80211p.usePropagationDelay true
param *.**.nic.phy80211p.antenna "xmldoc(\"antenna.xml\", \"/root/Antenna[@id='monopole']\")"
param *.node[*].applType "\"IntersectionApp\""
param *.node[*].appl.headerLength "80 bit"
param *.node[*].appl.sendBeacons false
param *.node[*].appl.dataOnSch false
param *.node[*].appl.beaconInterval 1s
param *.node[*].veinsmobilityType.debug true
param *.node[*].veinsmobility.x 0
param *.node[*].veinsmobility.y 0
param *.node[*].veinsmobility.z 0

vector 0 IntersectionScenario.node[0].veinsmobility posx ETV
vector 1 IntersectionScenario.node[0].veinsmobility posy ETV
vector 2 IntersectionScenario.node[1].veinsmobility posx ETV
vector 3 IntersectionScenario.node[1].veinsmobility posy ETV
vector 4 IntersectionScenario.node[2].veinsmobility posx ETV
vector 5 IntersectionScenario.node[2].veinsmobility posy ETV
vector 6 IntersectionScenario.node[3].veinsmobility posx ETV
vector 7 IntersectionScenario.node[3].veinsmobility posy ETV
vector 8 IntersectionScenario.node[4].veinsmobility posx ETV
vector 9 IntersectionScenario.node[4].veinsmobility posy ETV
vector 10 IntersectionScenario.node[5].veinsmobility posx ETV
vector 11 IntersectionScenario.node[5].veinsmobility posy ETV
vector 12 IntersectionScenario.node[6].veinsmobility posx ETV
vector 13 IntersectionScenario.node[6].veinsmobility posy ETV
vector 14 IntersectionScenario.node[7].veinsmobility posx ETV
vector 15 IntersectionScenario.node[7].veinsmobility posy ETV
vector 16 IntersectionScenario.node[8].veinsmobility posx ETV
vector 17 IntersectionScenario.node[8].veinsmobility posy ETV
vector 18 IntersectionScenario.node[9].veinsmobility posx ETV
vector 19 IntersectionScenario.node[9].veinsmobility posy ETV
vector 20 IntersectionScenario.node[10].veinsmobility posx ETV
vector 21 IntersectionScenario.node[10].veinsmobility posy ETV
vector 22 IntersectionScenario.node[11].veinsmobility posx ETV
vector 23 IntersectionScenario.node[11].veinsmobility posy ETV
vector 24 IntersectionScenario.node[12].veinsmobility posx ETV
vector 25 IntersectionScenario.node[12].veinsmobility posy ETV
vector 26 IntersectionScenario.node[13].veinsmobility posx ETV
vector 27 IntersectionScenario.node[13].veinsmobility posy ETV
vector 28 IntersectionScenario.node[0].veinsmobility speed ETV
vector 29 IntersectionScenario.node[1].veinsmobility speed ETV
vector 30 IntersectionScenario.node[2].veinsmobility speed ETV
vector 31 IntersectionScenario.node[3].veinsmobility speed ETV
vector 32 IntersectionScenario.node[4].veinsmobility speed ETV
vector 33 IntersectionScenario.node[5].veinsmobility speed ETV
vector 34 IntersectionScenario.node[6].veinsmobility speed ETV
vector 35 IntersectionScenario.node[7].veinsmobility speed ETV
vector 36 IntersectionScenario.node[8].veinsmobility speed ETV
vector 37 IntersectionScenario.node[9].veinsmobility speed ETV
vector 38 IntersectionScenario.node[10].veinsmobility speed ETV
vector 39 IntersectionScenario.node[11].veinsmobility speed ETV
vector 40 IntersectionScenario.node[12].veinsmobility speed ETV
vector 41 IntersectionScenario.node[13].veinsmobility speed ETV
vector 42 IntersectionScenario.node[0].veinsmobility acceleration ETV
vector 43 IntersectionScenario.node[0].veinsmobility co2emission ETV
vector 44 IntersectionScenario.node[1].veinsmobility acceleration ETV
vector 45 IntersectionScenario.node[1].veinsmobility co2emission ETV
vector 46 IntersectionScenario.node[2].veinsmobility acceleration ETV
vector 47 IntersectionScenario.node[2].veinsmobility co2emission ETV
vector 48 IntersectionScenario.node[3].veinsmobility acceleration ETV
vector 49 IntersectionScenario.node[3].veinsmobility co2emission ETV
vector 50 IntersectionScenario.node[4].veinsmobility acceleration ETV
vector 51 IntersectionScenario.node[4].veinsmobility co2emission ETV
vector 52 IntersectionScenario.node[5].veinsmobility acceleration ETV
vector 53 IntersectionScenario.node[5].veinsmobility co2emission ETV
vector 54 IntersectionScenario.node[6].veinsmobility acceleration ETV
vector 55 IntersectionScenario.node[6].veinsmobility co2emission ETV
vector 56 IntersectionScenario.node[7].veinsmobility acceleration ETV
vector 57 IntersectionScenario.node[7].veinsmobility co2emission ETV
vector 58 IntersectionScenario.node[8].veinsmobility acceleration ETV
vector 59 IntersectionScenario.node[8].veinsmobility co2emission ETV
vector 60 IntersectionScenario.node[9].veinsmobility acceleration ETV
vector 61 IntersectionScenario.node[9].veinsmobility co2emission ETV
vector 62 IntersectionScenario.node[10].veinsmobility acceleration ETV
vector 63 IntersectionScenario.node[10].veinsmobility co2emission ETV
vector 64 IntersectionScenario.node[11].veinsmobility acceleration ETV
vector 65 IntersectionScenario.node[11].veinsmobility co2emission ETV
vector 66 IntersectionScenario.node[12].veinsmobility acceleration ETV
vector 67 IntersectionScenario.node[12].veinsmobility co2emission ETV
vector 68 IntersectionScenario.node[13].veinsmobility acceleration ETV
vector 69 IntersectionScenario.node[13].veinsmobility co2emission ETV
vector 70 IntersectionScenario.node[14].veinsmobility posx ETV
vector 71 IntersectionScenario.node[14].veinsmobility posy ETV
vector 72 IntersectionScenario.node[14].veinsmobility speed ETV
vector 73 IntersectionScenario.node[15].veinsmobility posx ETV
vector 74 IntersectionScenario.node[15].veinsmobility posy ETV
vector 75 IntersectionScenario.node[16].veinsmobility posx ETV
vector 76 IntersectionScenario.node[16].veinsmobility posy ETV
vector 77 IntersectionScenario.node[14].veinsmobility acceleration ETV
vector 78 IntersectionScenario.node[14].veinsmobility co2emission ETV
vector 79 IntersectionScenario.node[17].veinsmobility posx ETV
vector 80 IntersectionScenario.node[17].veinsmobility posy ETV
vector 81 IntersectionScenario.node[18].veinsmobility posx ETV
vector 82 IntersectionScenario.node[18].veinsmobility posy ETV
vector 83 IntersectionScenario.node[19].veinsmobility posx ETV
vector 84 IntersectionScenario.node[19].veinsmobility posy ETV
vector 85 IntersectionScenario.node[20].veinsmobility posx ETV
vector 86 IntersectionScenario.node[20].veinsmobility posy ETV
vector 87 IntersectionScenario.node[21].veinsmobility posx ETV
vector 88 IntersectionScenario.node[21].veinsmobility posy ETV
vector 89 IntersectionScenario.node[22].veinsmobility posx ETV
vector 90 IntersectionScenario.node[22].veinsmobility posy ETV
vector 91 IntersectionScenario.node[23].veinsmobility posx ETV
vector 92 IntersectionScenario.node[23].veinsmobility posy ETV
vector 93 IntersectionScenario.node[24].veinsmobility posx ETV
vector 94 IntersectionScenario.node[24].veinsmobility posy ETV
vector 95 IntersectionScenario.node[15].veinsmobility speed ETV
vector 96 IntersectionScenario.node[16].veinsmobility speed ETV
vector 97 IntersectionScenario.node[15].veinsmobility acceleration ETV
vector 98 IntersectionScenario.node[15].veinsmobility co2emission ETV
vector 99 IntersectionScenario.node[16].veinsmobility acceleration ETV
vector 100 IntersectionScenario.node[16].veinsmobility co2emission ETV
vector 101 IntersectionScenario.node[17].veinsmobility speed ETV
vector 102 IntersectionScenario.node[18].veinsmobility speed ETV
vector 103 IntersectionScenario.node[19].veinsmobility speed ETV
vector 104 IntersectionScenario.node[20].veinsmobility speed ETV
vector 105 IntersectionScenario.node[21].veinsmobility speed ETV
vector 106 IntersectionScenario.node[22].veinsmobility speed ETV
vector 107 IntersectionScenario.node[23].veinsmobility speed ETV
vector 108 IntersectionScenario.node[24].veinsmobility speed ETV
vector 109 IntersectionScenario.node[17].veinsmobility acceleration ETV
vector 110 IntersectionScenario.node[17].veinsmobility co2emission ETV
vector 111 IntersectionScenario.node[18].veinsmobility acceleration ETV
vector 112 IntersectionScenario.node[18].veinsmobility co2emission ETV
vector 113 IntersectionScenario.node[19].veinsmobility acceleration ETV
vector 114 IntersectionScenario.node[19].veinsmobility co2emission ETV
vector 115 IntersectionScenario.node[20].veinsmobility acceleration ETV
vector 116 IntersectionScenario.node[20].veinsmobility co2emission ETV
vector 117 IntersectionScenario.node[21].veinsmobility acceleration ETV
vector 118 IntersectionScenario.node[21].veinsmobility co2emission ETV
vector 119 IntersectionScenario.node[22].veinsmobility acceleration ETV
vector 120 IntersectionScenario.node[22].veinsmobility co2emission ETV
vector 121 IntersectionScenario.node[23].veinsmobility acceleration ETV
vector 122 IntersectionScenario.node[23].veinsmobility co2emission ETV
vector 123 IntersectionScenario.node[24].veinsmobility acceleration ETV
vector 124 IntersectionScenario.node[24].veinsmobility co2emission ETV
vector 125 IntersectionScenario.node[25].veinsmobility posx ETV
vector 126 IntersectionScenario.node[25].veinsmobility posy ETV
vector 127 IntersectionScenario.node[25].veinsmobility speed ETV
vector 128 IntersectionScenario.node[26].veinsmobility posx ETV
vector 129 IntersectionScenario.node[26].veinsmobility posy ETV
vector 130 IntersectionScenario.node[25].veinsmobility acceleration ETV
vector 131 IntersectionScenario.node[25].veinsmobility co2emission ETV
vector 132 IntersectionScenario.node[27].veinsmobility posx ETV
vector 133 IntersectionScenario.node[27].veinsmobility posy ETV
vector 134 IntersectionScenario.node[28].veinsmobility posx ETV
vector 135 IntersectionScenario.node[28].veinsmobility posy ETV
vector 136 IntersectionScenario.node[26].veinsmobility speed ETV
vector 137 IntersectionScenario.node[29].veinsmobility posx ETV
vector 138 IntersectionScenario.node[29].veinsmobility posy ETV
vector 139 IntersectionScenario.node[30].veinsmobility posx ETV
vector 140 IntersectionScenario.node[30].veinsmobility posy ETV
vector 141 IntersectionScenario.node[31].veinsmobility posx ETV
vector 142 IntersectionScenario.node[31].veinsmobility posy ETV
vector 143 IntersectionScenario.node[26].veinsmobility acceleration ETV
vector 144 IntersectionScenario.node[26].veinsmobility co2emission ETV
vector 145 IntersectionScenario.node[27].veinsmobility speed ETV
vector 146 IntersectionScenario.node[28].veinsmobility speed ETV
vector 147 IntersectionScenario.node[27].veinsmobility acceleration ETV
vector 148 IntersectionScenario.node[27].veinsmobility co2emission ETV
vector 149 IntersectionScenario.node[28].veinsmobility acceleration ETV
vector 150 IntersectionScenario.node[28].veinsmobility co2emission ETV
vector 151 IntersectionScenario.node[29].veinsmobility speed ETV
vector 152 IntersectionScenario.node[30].veinsmobility speed ETV
vector 153 IntersectionScenario.node[31].veinsmobility speed ETV
vector 154 IntersectionScenario.node[32].veinsmobility posx ETV
vector 155 IntersectionScenario.node[32].veinsmobility posy ETV
vector 156 IntersectionScenario.node[29].veinsmobility acceleration ETV
vector 157 IntersectionScenario.node[29].veinsmobility co2emission ETV
vector 158 IntersectionScenario.node[30].veinsmobility acceleration ETV
vector 159 IntersectionScenario.node[30].veinsmobility co2emission ETV
vector 160 IntersectionScenario.node[31].veinsmobility acceleration ETV
vector 161 IntersectionScenario.node[31].veinsmobility co2emission ETV
vector 162 IntersectionScenario.node[32].veinsmobility speed ETV
vector 163 IntersectionScenario.node[32].veinsmobility acceleration ETV
vector 164 IntersectionScenario.node[32].veinsmobility co2emission ETV
vector 165 IntersectionScenario.node[33].veinsmobility posx ETV
vector 166 IntersectionScenario.node[33].veinsmobility posy ETV
vector 167 IntersectionScenario.node[34].veinsmobility posx ETV
vector 168 IntersectionScenario.node[34].veinsmobility posy ETV
vector 169 IntersectionScenario.node[35].veinsmobility posx ETV
vector 170 IntersectionScenario.node[35].veinsmobility posy ETV
vector 171 IntersectionScenario.node[33].veinsmobility speed ETV
vector 172 IntersectionScenario.node[34].veinsmobility speed ETV
vector 173 IntersectionScenario.node[33].veinsmobility acceleration ETV
vector 174 IntersectionScenario.node[33].veinsmobility co2emission ETV
vector 175 IntersectionScenario.node[34].veinsmobility acceleration ETV
vector 176 IntersectionScenario.node[34].veinsmobility co2emission ETV
vector 177 IntersectionScenario.node[35].veinsmobility speed ETV
vector 178 IntersectionScenario.node[35].veinsmobility acceleration ETV
vector 179 IntersectionScenario.node[35].veinsmobility co2emission ETV
vector 180 IntersectionScenario.node[36].veinsmobility posx ETV
vector 181 IntersectionScenario.node[36].veinsmobility posy ETV
vector 182 IntersectionScenario.node[36].veinsmobility speed ETV
vector 183 IntersectionScenario.node[37].veinsmobility posx ETV
vector 184 IntersectionScenario.node[37].veinsmobility posy ETV
vector 185 IntersectionScenario.node[36].veinsmobility acceleration ETV
vector 186 IntersectionScenario.node[36].veinsmobility co2emission ETV
vector 187 IntersectionScenario.node[38].veinsmobility posx ETV
vector 188 IntersectionScenario.node[38].veinsmobility posy ETV
vector 189 IntersectionScenario.node[37].veinsmobility speed ETV
vector 190 IntersectionScenario.node[39].veinsmobility posx ETV
vector 191 IntersectionScenario.node[39].veinsmobility posy ETV
vector 192 IntersectionScenario.node[37].veinsmobility acceleration ETV
vector 193 IntersectionScenario.node[37].veinsmobility co2emission ETV
vector 194 IntersectionScenario.node[38].veinsmobility speed ETV
vector 195 IntersectionScenario.node[38].veinsmobility acceleration ETV
vector 196 IntersectionScenario.node[38].veinsmobility co2emission ETV
vector 197 IntersectionScenario.node[39].veinsmobility speed ETV
vector 198 IntersectionScenario.node[40].veinsmobility posx ETV
vector 199 IntersectionScenario.node[40].veinsmobility posy ETV
vector 200 IntersectionScenario.node[39].veinsmobility acceleration ETV
vector 201 IntersectionScenario.node[39].veinsmobility co2emission ETV
vector 202 IntersectionScenario.node[40].veinsmobility speed ETV
vector 203 IntersectionScenario.node[40].veinsmobility acceleration ETV
vector 204 IntersectionScenario.node[40].veinsmobility co2emission ETV
vector 205 IntersectionScenario.node[41].veinsmobility posx ETV
vector 206 IntersectionScenario.node[41].veinsmobility posy ETV
vector 207 IntersectionScenario.node[41].veinsmobility speed ETV
vector 208 IntersectionScenario.node[41].veinsmobility acceleration ETV
vector 209 IntersectionScenario.node[41].veinsmobility co2emission ETV
100	9041	8	1.2676883702083
100	10882	9	1.4951137629416
100	12552	10	0.973
100	14313	11	1.6017394343136
100	16174	12	0.973
100	18108	13	1.2323043537675
100	20234	14	1.1625186719482
100	22482	15	1.448583162324
100	24781	16	0.973
100	27243	17	1.2663826357395
100	29769	18	1.4451187337373
100	32352	19	0.973
100	35039	20	1.4995663368691
100	37942	21	0.973
100	40744	22	1.1568054247527
100	43399	23	1.4941253109329
100	46292	24	0.973
100	49126	25	0.973
100	52132	26	1.2696491854248
100	55164	27	0.973
100	58336	28	1.1980890158752
100	61389	29	1.1581864405691
100	64722	30	1.2035672197975
100	67939	31	1.3189481670986
100	71264	32	0.973
100	74604	33	1.2419827301684
100	77941	34	0.973
100	81365	35	1.3357920645242
100	84744	36	1.2193460471754
100	88331	37	0.973
100	91973	38	0.973
100	95666	39	1.3526388173181
100	99179	40	1.2862467481276
100	102737	41	0.973
100	106373	42	1.3490677020057
100	109961	43	0.973
100	113603	44	1.3382283423397
100	117374	45	0.973
100	121184	46	1.3105010904615
100	125054	47	1.2750919952806
100	128951	48	0.973
100	132815	49	1.1555551254217
100	136652	50	1.5347152659107
100	140645	51	0.973
100	144839	52	1.1721124455817
100	148931	53	1.2047761323016
100	153155	54	0.973
100	157205	55	1.2979085034278
100	161264	56	0.973
100	165410	57	0.973
100	169529	58	1.1757331419258
100	173696	59	1.5016741210302
100	177908	60	0.973
100	182357	61	1.3437134553901
100	186434	62	1.1968410888842
100	190547	63	0.973
100	194786	64	1.5488950604269
100	199079	65	1.2168963623105
100	203477	66	0.973
100	207977	67	1.6280772077667
100	212750	68	0.973
100	217289	69	1.3297872655379
100	221972	70	0.973
100	226538	71	1.185499091592
100	231164	72	0.973
100	235586	73	1.3451239190585
100	240236	74	1.2442600736559
100	244850	75	0.973
100	249632	76	1.2008480421524
100	254408	77	1.1912838200702
100	259346	78	0.973
100	264014	79	1.5940797287276
100	268829	80	0.973
100	273764	81	0.973
100	278768	82	1.1619770395421
100	283754	83	1.3345028581993
100	288587	84	0.973
100	293714	85	1.3011228410107
100	298745	86	0.973
100	303725	87	1.4305951153085
100	308543	88	1.1661130413803
99	9041	8	0.63572354994244
99	10882	9	0.80526889763055
99	12552	10	-0.82707576348528
99	14313	11	0.97452723999161
99	16174	12	-0.37419091584161
99	18108	13	0.13759669708088
99	20234	14	-0.050491872010753
99	22482	15	0.51425687060691
99	24781	16	-1.3048908493952
99	27243	17	0.40823623212104
99	29769	18	0.62241812492721
99	32352	19	-0.59605110463
99	35039	20	0.70037690273731
99	37942	21	-0.53952415892854
99	40744	22	-0.040547915734351
99	43399	23	0.65294396565975
99	46292	24	-0.3992509858071
99	49126	25	-0.20104002439453
99	52132	26	0.23930116059877
99	55164	27	-0.56003231508777
99	58336	28	0.13729956982453
99	61389	29	-0.013433262280748
99	64722	30	0.12473120718063
99	67939	31	0.35793941072188
99	71264	32	-0.34645131998695
99	74604	33	0.19141694158316
99	77941	34	-0.36300331889652
99	81365	35	0.43658390967175
99	84744	36	0.089871121337637
99	88331	37	-0.24003114295192
99	91973	38	-0.22703572153114
99	95666	39	0.45121306576766
99	99179	40	0.21461818669923
99	102737	41	-0.14053839375265
99	106373	42	0.31239791028202
99	109961	43	-0.45414166641422
99	113603	44	0.32458771648817
99	117374	45	-0.4821438069921
99	121184	46	0.30982119450346
99	125054	47	0.17789593781345
99	128951	48	-0.47981453244574
99	132815	49	-0.052389840595424
99	136652	50	0.69395389757119
99	140645	51	-0.2070637147408
99	144839	52	-0.050576444948092
99	148931	53	0.025293914601207
99	153155	54	-0.22034611785784
99	157205	55	0.24232832551934
99	161264	56	-0.21633252757601
99	165410	57	-0.46332865185104
99	169529	58	0.042777019785717
99	173696	59	0.69417289667763
99	177908	60	-0.28997619147412
99	182357	61	0.32329754950479
99	186434	62	-0.0058566406369209
99	190547	63	-0.85075168587345
99	194786	64	0.80972421933975
99	199079	65	0.039517628261819
99	203477	66	-0.71384924975673
99	207977	67	0.87318238988037
99	212750	68	-0.76680180851985
99	217289	69	0.36831991015921
99	221972	70	-0.3322025011392
99	226538	71	0.038693922851792
99	231164	72	-0.30402022452401
99	235586	73	0.46374565036967
99	240236	74	0.14441219053304
99	244850	75	-0.61933170168812
99	249632	76	0.13392570559946
99	254408	77	0.079013756476343
99	259346	78	-0.16753558954224
99	264014	79	0.85785318468697
99	268829	80	-0.21584580745548
99	273764	81	-0.4822346388828
99	278768	82	-0.017927182838321
99	283754	83	0.39161719172262
99	288587	84	-0.42045451863669
99	293714	85	0.33323778584599
99	298745	86	-0.1474662902765
99	303725	87	0.5163186932914
99	308543	88	-0.070761304115877
96	7238	7	0.14682591160513
96	9041	8	0.78254946154757
96	10882	9	1.5878183591781
96	12552	10	0.76074259569284
96	14313	11	1.7352698356844
96	16174	12	1.3610789198428
96	18108	13	1.4986756169237
96	20234	14	1.448183744913
96	22482	15	1.9624406155199
96	24781	16	0.65754976612466
96	27243	17	1.0657859982457
96	29769	18	1.6882041231729
96	32352	19	1.0921530185429
96	35039	20	1.7925299212802
96	37942	21	1.2530057623517
96	40744	22	1.2124578466173
96	43399	23	1.8654018122771
96	46292	24	1.46615082647
96	49126	25	1.2651108020754
96	52132	26	1.5044119626742
96	55164	27	0.94437964758644
96	58336	28	1.081679217411
96	61389	29	1.0682459551302
96	64722	30	1.1929771623109
96	67939	31	1.5509165730327
96	71264	32	1.2044652530458
96	74604	33	1.3958821946289
96	77941	34	1.0328788757324
96	81365	35	1.4694627854042
96	84744	36	1.5593339067418
96	88331	37	1.3193027637899
96	91973	38	1.0922670422588
96	95666	39	1.5434801080264
96	99179	40	1.7580982947256
96	102737	41	1.617559900973
96	106373	42	1.929957811255
96	109961	43	1.4758161448408
96	113603	44	1.800403861329
96	117374	45	1.3182600543369
96	121184	46	1.6280812488403
96	125054	47	1.8059771866538
96	128951	48	1.326162654208
96	132815	49	1.2737728136126
96	136652	50	1.9677267111838
96	140645	51	1.760662996443
96	144839	52	1.7100865514949
96	148931	53	1.7353804660961
96	153155	54	1.5150343482383
96	157205	55	1.7573626737576
96	161264	56	1.5410301461816
96	165410	57	1.0777014943305
96	169529	58	1.1204785141163
96	173696	59	1.8146514107939
96	177908	60	1.5246752193198
96	182357	61	1.8479727688245
96	186434	62	1.8421161281876
96	190547	63	0.99136444231417
96	194786	64	1.8010886616539
96	199079	65	1.8406062899157
96	203477	66	1.126757040159
96	207977	67	1.9999394300394
96	212750	68	1.2331376215195
96	217289	69	1.6014575316787
96	221972	70	1.2692550305395
96	226538	71	1.3079489533913
96	231164	72	1.0039287288673
96	235586	73	1.467674379237
96	240236	74	1.61208656977
96	244850	75	0.99275486808191
96	249632	76	1.1266805736814
96	254408	77	1.2056943301577
96	259346	78	1.0381587406155
96	264014	79	1.8960119253024
96	268829	80	1.680166117847
96	273764	81	1.1979314789642
96	278768	82	1.1800042961258
96	283754	83	1.5716214878485
96	288587	84	1.1511669692118
96	293714	85	1.4844047550578
96	298745	86	1.3369384647813
96	303725	87	1.8532571580727
96	308543	88	1.7824958539568
76	5901	6	111.97358038862
76	7238	7	111.97358038862
76	9041	8	111.86975375194
76	10882	9	111.31638086468
76	12552	10	110.19356924315
76	14313	11	109.655616887
76	16174	12	108.42853626613
76	18108	13	107.4660614212
76	20234	14	106.4062862965
76	22482	15	105.38221604973
76	24781	16	103.99449363365
76	27243	17	103.52951316855
76	29769	18	102.7758520851
76	32352	19	101.58205356396
76	35039	20	100.80974727676
76	37942	21	99.542175695961
76	40744	22	98.656123822526
76	43399	23	97.798745046838
76	46292	24	96.479642756857
76	49126	25	95.442867248265
76	52132	26	94.548255403721
76	55164	27	93.484423873175
76	58336	28	92.816614210108
76	61389	29	92.051714378168
76	64722	30	91.296313758098
76	67939	31	90.452710574944
76	71264	32	89.355993723062
76	74604	33	88.504266838785
76	77941	34	87.517181167827
76	81365	35	86.786790063195
76	84744	36	85.747672532318
76	88331	37	84.645003437815
76	91973	38	83.712070229839
76	95666	39	82.939683311787
76	99179	40	81.848225089951
76	102737	41	80.605001527435
76	106373	42	79.461158439308
76	109961	43	78.096405949181
76	113603	44	77.052795696721
76	117374	45	75.77965612929
76	121184	46	74.847460264023
76	125054	47	73.696177098389
76	128951	48	72.419096403555
76	132815	49	71.48131228512
76	136652	50	70.580575176208
76	140645	51	69.189114744629
76	144839	52	67.944077576119
76	148931	53	66.734805090537
76	153155	54	65.507646238354
76	157205	55	64.436303182393
76	161264	56	63.193599807698
76	165410	57	62.103874054577
76	169529	58	61.341787034112
76	173696	59	60.549450624811
76	177908	60	59.266236029574
76	182357	61	58.188075517429
76	186434	62	56.881298020413
76	190547	63	55.5786619947
76	194786	64	54.877627452193
76	199079	65	53.604003634306
76	203477	66	52.30243527729
76	207977	67	51.505659064175
76	212750	68	50.091419695142
76	217289	69	49.219417400676
76	221972	70	48.086960959688
76	226538	71	47.189418560868
76	231164	72	46.264514098869
76	235586	73	45.554594832945
76	240236	74	44.516741957572
76	244850	75	43.376769286894
76	249632	76	42.674751517179
76	254408	77	41.878029376653
76	259346	78	41.025433361435
76	264014	79	40.291308647341
76	268829	80	38.950560688356
76	273764	81	37.762446171145
76	278768	82	36.915339587061
76	283754	83	36.080910050775
76	288587	84	34.969551902649
76	293714	85	34.155514425445
76	298745	86	33.105830813707
76	303725	87	32.160426676727
76	308543	88	30.849912370884
75	5901	6	214.23358038862
75	7238	7	214.23358038862
75	9041	8	214.12975375194
75	10882	9	213.57638086468
75	12552	10	212.45356924315
75	14313	11	211.915616887
75	16174	12	210.68853626613
75	18108	13	209.7260614212
75	20234	14	208.6662862965
75	22482	15	207.64221604973
75	24781	16	206.25449363365
75	27243	17	205.78951316855
75	29769	18	205.0358520851
75	32352	19	203.84205356396
75	35039	20	203.06974727676
75	37942	21	201.80217569596
75	40744	22	200.91612382253
75	43399	23	200.05874504684
75	46292	24	198.73964275686
75	49126	25	197.70286724826
75	52132	26	196.80825540372
75	55164	27	195.74442387318
75	58336	28	195.07661421011
75	61389	29	194.31171437817
75	64722	30	193.5563137581
75	67939	31	192.71271057494
75	71264	32	191.61599372306
75	74604	33	190.76426683879
75	77941	34	189.77718116783
75	81365	35	189.0467900632
75	84744	36	188.00767253232
75	88331	37	186.90500343782
75	91973	38	185.97207022984
75	95666	39	185.19968331179
75	99179	40	184.10822508995
75	102737	41	182.86500152744
75	106373	42	181.72115843931
75	109961	43	180.35640594918
75	113603	44	179.31279569672
75	117374	45	178.03965612929
75	121184	46	177.10746026402
75	125054	47	175.95617709839
75	128951	48	174.67909640355
75	132815	49	173.74131228512
75	136652	50	172.84057517621
75	140645	51	171.44911474463
75	144839	52	170.20407757612
75	148931	53	168.99480509054
75	153155	54	167.76764623835
75	157205	55	166.69630318239
75	161264	56	165.4535998077
75	165410	57	164.36387405458
75	169529	58	163.60178703411
75	173696	59	162.80945062481
75	177908	60	161.52623602957
75	182357	61	160.44807551743
75	186434	62	159.14129802041
75	190547	63	157.8386619947
75	194786	64	157.13762745219
75	199079	65	155.86400363431
75	203477	66	154.56243527729
75	207977	67	153.76565906417
75	212750	68	152.35141969514
75	217289	69	151.47941740068
75	221972	70	150.34696095969
75	226538	71	149.44941856087
75	231164	72	148.52451409887
75	235586	73	147.81459483294
75	240236	74	146.77674195757
75	244850	75	145.63676928689
75	249632	76	144.93475151718
75	254408	77	144.13802937665
75	259346	78	143.28543336144
75	264014	79	142.55130864734
75	268829	80	141.21056068836
75	273764	81	140.02244617114
75	278768	82	139.17533958706
75	283754	83	138.34091005077
75	288587	84	137.22955190265
75	293714	85	136.41551442545
75	298745	86	135.36583081371
75	303725	87	134.42042667673
75	308543	88	133.10991237088
78	5901	6	1.2042121371164
78	7238	7	0.973
78	9041	8	1.1461237862252
78	10882	9	1.421132779119
78	12552	10	1.193217636217
78	14313	11	1.2081151559176
78	16174	12	0.973
78	18108	13	1.4954115103269
78	20234	14	0.973
78	22482	15	1.4993939473514
78	24781	16	0.973
78	27243	17	1.178208167081
78	29769	18	1.1603157376001
78	32352	19	1.2837722358175
78	35039	20	0.973
78	37942	21	1.2566853594399
78	40744	22	0.973
78	43399	23	1.1942515721807
78	46292	24	0.973
78	49126	25	1.3946667366011
78	52132	26	1.1908905462372
78	55164	27	0.973
78	58336	28	1.2862094211425
78	61389	29	0.973
78	64722	30	1.2152005866283
78	67939	31	1.166646468449
78	71264	32	1.2048620394614
78	74604	33	0.973
78	77941	34	1.6544394759174
78	81365	35	0.973
78	84744	36	1.1570090022808
78	88331	37	0.973
78	91973	38	1.5215466630367
78	95666	39	0.973
78	99179	40	0.973
78	102737	41	0.973
78	106373	42	1.3751066423867
78	109961	43	0.973
78	113603	44	1.3368699336765
78	117374	45	1.2292286920744
78	121184	46	0.973
78	125054	47	0.973
78	128951	48	1.5934591805012
78	132815	49	0.973
78	136652	50	0.973
78	140645	51	1.214475728708
78	144839	52	1.3866445644169
78	148931	53	1.2181541203271
78	153155	54	0.973
78	157205	55	1.2739440121296
78	161264	56	1.1471867848391
78	165410	57	1.2071229803013
78	169529	58	1.3414714013705
78	173696	59	0.973
78	177908	60	1.2295478729611
78	182357	61	0.973
78	186434	62	1.1518828080266
78	190547	63	1.4331382319436
78	194786	64	1.2847017061992
78	199079	65	1.1504411784682
78	203477	66	0.973
78	207977	67	1.3266113284742
78	212750	68	0.973
78	217289	69	1.373954892079
78	221972	70	0.973
78	226538	71	1.2440567751507
78	231164	72	1.3275490618736
78	235586	73	1.3016849305445
78	240236	74	0.973
78	244850	75	1.2345211151842
78	249632	76	1.1871872210443
78	254408	77	0.973
78	259346	78	1.2191197127475
78	264014	79	1.4228993310717
78	268829	80	0.973
78	273764	81	1.4221260247815
78	278768	82	0.973
78	283754	83	1.2580868410599
78	288587	84	0.973
78	293714	85	1.3389717456074
78	298745	86	1.1671507934456
78	303725	87	1.180127619568
78	308543	88	1.2434201458219
78	313409	89	0.973
78	318351	90	0.973
78	323044	91	1.4317914992828
78	327869	92	0.973
78	332682	93	0.973
78	337543	94	1.3208314959865
78	342206	95	1.3822388031292
78	346863	96	0.973
78	351739	97	1.2826768956011
78	356450	98	1.3899047038467
78	361071	99	0.973
78	365704	100	1.1576999536749
78	370388	101	1.1494446858312
78	374958	102	1.2732452146208
78	379756	103	1.2111381493227
78	384620	104	0.973
78	389697	105	1.534980505324
78	394633	106	0.973
78	399272	107	1.2645075450681
78	403833	108	0.973
78	408565	109	1.5402678387467
78	413291	110	0.973
78	417906	111	0.973
78	422575	112	1.6302908781861
78	427091	113	0.973
78	431733	114	0.973
78	436435	115	1.2260358701819
78	441065	116	0.973
77	5901	6	0.0081351122353226
77	7238	7	-0.7671304049436
77	9041	8	-0.056600691052154
77	10882	9	0.59022410353646
77	12552	10	0.0092806967440993
77	14313	11	0.040875514037907
77	16174	12	-0.64361958997324
77	18108	13	0.71239226986654
77	20234	14	-0.49937356100418
77	22482	15	0.64894294948317
77	24781	16	-0.62182871857658
77	27243	17	0.017641205806285
77	29769	18	-0.035136397229508
77	32352	19	0.2700536090415
77	35039	20	-0.31924223387614
77	37942	21	0.22331811371259
77	40744	22	-0.10449523455463
77	43399	23	0.052039850270376
77	46292	24	-0.2886788060423
77	49126	25	0.52752172551118
77	52132	26	0.0052206330001354
77	55164	27	-0.16541045741178
77	58336	28	0.23093743366189
77	61389	29	-0.13559251651168
77	64722	30	0.067652098368853
77	67939	31	-0.051607801578939
77	71264	32	0.042596959741786
77	74604	33	-0.58272814773954
77	77941	34	0.94246821734123
77	81365	35	-0.65074512478895
77	84744	36	-0.047905369894579
77	88331	37	-0.16281293239444
77	91973	38	0.72673030849546
77	95666	39	-0.16775752673857
77	99179	40	-0.30959469731897
77	102737	41	-0.25421826704405
77	106373	42	0.4880082195159
77	109961	43	-0.20251538977027
77	113603	44	0.34126843302511
77	117374	45	0.072321728570387
77	121184	46	-0.41587533173151
77	125054	47	-0.35755414469168
77	128951	48	0.85852974257432
77	132815	49	-0.24980694171973
77	136652	50	-0.46737306099385
77	140645	51	0.13105199416168
77	144839	52	0.45164600969292
77	148931	53	0.047198706306517
77	153155	54	-0.41953706229106
77	157205	55	0.22200749372132
77	161264	56	-0.098770475480705
77	165410	57	0.056374405277893
77	169529	58	0.31053774338216
77	173696	59	-0.22603629529476
77	177908	60	0.084692635107785
77	182357	61	-0.67603524215519
77	186434	62	-0.031348834279925
77	190547	63	0.61525874421932
77	194786	64	0.19343857001513
77	199079	65	-0.10438971314579
77	203477	66	-0.71514479746111
77	207977	67	0.42340323864482
77	212750	68	-0.32534575276077
77	217289	69	0.48410815303214
77	221972	70	-0.33405189821497
77	226538	71	0.18329973355867
77	231164	72	0.31174437329173
77	235586	73	0.20356637332588
77	240236	74	-0.66605941415764
77	244850	75	0.15493273525499
77	249632	76	0.01706116553396
77	254408	77	-0.38095583044924
77	259346	78	0.16161429905333
77	264014	79	0.5287555991672
77	268829	80	-0.56377398269251
77	273764	81	0.53778769890778
77	278768	82	-0.34089481690899
77	283754	83	0.18401882890612
77	288587	84	-0.27647151169367
77	293714	85	0.36348295724019
77	298745	86	-0.055422650184482
77	303725	87	-0.020067886449397
77	308543	88	0.11938978731632
77	313409	89	-0.19658865057863
77	318351	90	-0.14402501937002
77	323044	91	0.50477660051547
77	327869	92	-0.41353915142827
77	332682	93	-0.30262933904305
77	337543	94	0.36665170500055
77	342206	95	0.3849619620014
77	346863	96	-0.87338984548114
77	351739	97	0.32083891751245
77	356450	98	0.43931454466656
77	361071	99	-0.56787873362191
77	365704	100	-0.036865655565634
77	370388	101	-0.058299873489887
77	374958	102	0.27465232624672
77	379756	103	0.078272987622768
77	384620	104	-0.28340533259325
77	389697	105	0.71170038217679
77	394633	106	-0.45397118967958
77	399272	107	0.18464149767533
77	403833	108	-0.38398559181951
77	408565	109	0.70079827867448
77	413291	110	-0.71823567361571
77	417906	111	-0.2347857572604
77	422575	112	0.91249866574071
77	427091	113	-0.47614386747591
77	431733	114	-0.12904932233505
77	436435	115	0.12854075268842
77	441065	116	-0.41863279161043
72	4755	5	1.8566467144992
72	5901	6	1.8647818267345
72	7238	7	1.0976514217909
72	9041	8	1.0410507307388
72	10882	9	1.6312748342752
72	12552	10	1.6405555310193
72	14313	11	1.6814310450573
72	16174	12	1.037811455084
72	18108	13	1.7502037249506
72	20234	14	1.2508301639464
72	22482	15	1.8997731134295
72	24781	16	1.277944394853
72	27243	17	1.2955856006593
72	29769	18	1.2604492034297
72	32352	19	1.5305028124712
72	35039	20	1.2112605785951
72	37942	21	1.4345786923077
72	40744	22	1.3300834577531
72	43399	23	1.3821233080234
72	46292	24	1.0934445019811
72	49126	25	1.6209662274923
72	52132	26	1.6261868604925
72	55164	27	1.4607764030807
72	58336	28	1.6917138367426
72	61389	29	1.5561213202309
72	64722	30	1.6237734185997
72	67939	31	1.5721656170208
72	71264	32	1.6147625767626
72	74604	33	1.032034429023
72	77941	34	1.9745026463643
72	81365	35	1.3237575215753
72	84744	36	1.2758521516807
72	88331	37	1.1130392192863
72	91973	38	1.8397695277818
72	95666	39	1.6720120010432
72	99179	40	1.3624173037242
72	102737	41	1.1081990366802
72	106373	42	1.5962072561961
72	109961	43	1.3936918664258
72	113603	44	1.7349602994509
72	117374	45	1.8072820280213
72	121184	46	1.3914066962898
72	125054	47	1.0338525515981
72	128951	48	1.8923822941724
72	132815	49	1.6425753524527
72	136652	50	1.1752022914588
72	140645	51	1.3062542856205
72	144839	52	1.7579002953134
72	148931	53	1.80509900162
72	153155	54	1.3855619393289
72	157205	55	1.6075694330502
72	161264	56	1.5087989575695
72	165410	57	1.5651733628474
72	169529	58	1.8757111062296
72	173696	59	1.6496748109348
72	177908	60	1.7343674460426
72	182357	61	1.0583322038874
72	186434	62	1.0269833696075
72	190547	63	1.6422421138268
72	194786	64	1.8356806838419
72	199079	65	1.7312909706961
72	203477	66	1.016146173235
72	207977	67	1.4395494118799
72	212750	68	1.1142036591191
72	217289	69	1.5983118121512
72	221972	70	1.2642599139363
72	226538	71	1.4475596474949
72	231164	72	1.7593040207867
72	235586	73	1.9628703941125
72	240236	74	1.2968109799549
72	244850	75	1.4517437152099
72	249632	76	1.4688048807438
72	254408	77	1.0878490502946
72	259346	78	1.2494633493479
72	264014	79	1.7782189485151
72	268829	80	1.2144449658226
72	273764	81	1.7522326647304
72	278768	82	1.4113378478214
72	283754	83	1.5953566767275
72	288587	84	1.3188851650339
72	293714	85	1.6823681222741
72	298745	86	1.6269454720896
72	303725	87	1.6068775856402
72	308543	88	1.7262673729565
72	313409	89	1.5296787223779
72	318351	90	1.3856537030078
72	323044	91	1.8904303035233
72	327869	92	1.476891152095
72	332682	93	1.174261813052
72	337543	94	1.5409135180525
72	342206	95	1.9258754800539
72	346863	96	1.0524856345728
72	351739	97	1.3733245520853
72	356450	98	1.8126390967518
72	361071	99	1.2447603631299
72	365704	100	1.2078947075643
72	370388	101	1.1495948340744
72	374958	102	1.4242471603211
72	379756	103	1.5025201479439
72	384620	104	1.2191148153506
72	389697	105	1.9308151975274
72	394633	106	1.4768440078478
72	399272	107	1.6614855055232
72	403833	108	1.2774999137037
72	408565	109	1.9782981923781
72	413291	110	1.2600625187624
72	417906	111	1.025276761502
72	422575	112	1.9377754272427
72	427091	113	1.4616315597668
72	431733	114	1.3325822374318
72	436435	115	1.4611229901202
72	441065	116	1.0424901985098
71	3637	4	226.6
71	4755	5	226.6
71	5901	6	226.6
71	7238	7	226.6
71	9041	8	226.6
71	10882	9	226.6
71	12552	10	226.6
71	14313	11	226.6
71	16174	12	226.6
71	18108	13	226.6
71	20234	14	226.6
71	22482	15	226.6
71	24781	16	226.6
71	27243	17	226.6
71	29769	18	226.6
71	32352	19	226.6
71	35039	20	226.6
71	37942	21	226.6
71	40744	22	226.6
71	43399	23	226.6
71	46292	24	226.6
71	49126	25	226.6
71	52132	26	226.6
71	55164	27	226.6
71	58336	28	226.6
71	61389	29	226.6
71	64722	30	226.6
71	67939	31	226.6
71	71264	32	226.6
71	74604	33	226.6
71	77941	34	226.6
71	81365	35	226.6
71	84744	36	226.6
71	88331	37	226.6
71	91973	38	226.6
71	95666	39	226.6
71	99179	40	226.6
71	102737	41	226.6
71	106373	42	226.6
71	109961	43	226.6
71	113603	44	226.6
71	117374	45	226.6
71	121184	46	226.6
71	125054	47	226.6
71	128951	48	226.6
71	132815	49	226.6
71	136652	50	226.8303253976
71	140645	51	227.11935093909
71	144839	52	227.79151844693
71	148931	53	229.1601538184
71	153155	54	230.8562771494
71	157205	55	232.22840936713
71	161264	56	233.83597880018
71	165410	57	235.34477775775
71	169529	58	236.9099511206
71	173696	59	238.78566222683
71	177908	60	240.43533703776
71	182357	61	242.1697044838
71	186434	62	243.22803668769
71	190547	63	244.2550200573
71	194786	64	245.89726217113
71	199079	65	247.73294285497
71	203477	66	249.46423382566
71	207977	67	250.4803799989
71	212750	68	251.91992941078
71	217289	69	253.0341330699
71	221972	70	254.63244488205
71	226538	71	255.89670479598
71	231164	72	257.34426444348
71	235586	73	259.10356846427
71	240236	74	261.06643885838
71	244850	75	262.36324983833
71	249632	76	263.81499355354
71	254408	77	265.28379843429
71	259346	78	266.37164748458
71	264014	79	267.62111083393
71	268829	80	269.39932978244
71	273764	81	270.61377474827
71	278768	82	272.366007413
71	283754	83	273.77734526082
71	288587	84	275.37270193755
71	293714	85	276.69158710258
71	298745	86	278.37395522485
71	303725	87	280.00090069694
71	308543	88	281.60777828258
71	313409	89	283.33404565554
71	318351	90	284.86372437792
71	323044	91	286.24937808093
71	327869	92	288.13980838445
71	332682	93	289.61669953655
71	337543	94	290.7909613496
71	342206	95	292.33187486765
71	346863	96	294.2577503477
71	351739	97	295.31023598228
71	356450	98	296.68356053436
71	361071	99	298.49619963111
71	365704	100	299.74095999424
71	370388	101	300.94885470181
71	374958	102	302.09844953588
71	379756	103	303.5226966962
71	384620	104	305.02521684415
71	389697	105	306.2443316595
71	394633	106	308.17514685703
71	399272	107	309.65199086487
71	403833	108	311.3134763704
71	408565	109	312.5909762841
71	413291	110	314.56927447648
71	417906	111	315.82933699524
71	422575	112	316.85461375674
71	427091	113	318.79238918399
71	431733	114	320.25402074375
71	436435	115	321.58660298118
71	441065	116	323.0477259713
70	3637	4	31.761142857143
70	4755	5	31.761142857143
70	5901	6	34.222525930079
70	7238	7	36.694693837521
70	9041	8	38.149866008124
70	10882	9	39.530001834018
70	12552	10	41.692606185743
70	14313	11	43.867514089723
70	16174	12	46.096611246599
70	18108	13	47.472452718481
70	20234	14	49.792722799559
70	22482	15	51.450966216905
70	24781	16	53.969522572994
70	27243	17	55.663711713599
70	29769	18	57.381288052759
70	32352	19	59.052283568163
70	35039	20	61.081293010982
70	37942	21	62.687078463748
70	40744	22	64.588919930122
70	43399	23	66.352230571257
70	46292	24	68.184531185323
70	49126	25	69.634126182235
70	52132	26	71.783064266682
70	55164	27	73.938923418877
70	58336	28	75.875495564676
70	61389	29	78.118224765386
70	64722	30	80.181197029921
70	67939	31	82.333856647721
70	71264	32	84.418099065715
70	74604	33	86.558812881766
70	77941	34	87.92699566767
70	81365	35	90.544622033136
70	84744	36	92.29954629031
70	88331	37	93.990961714253
70	91973	38	95.466533707821
70	95666	39	97.905542453223
70	99179	40	100.12215264889
70	102737	41	101.92832873154
70	106373	42	103.39748402588
70	109961	43	105.51359878838
70	113603	44	107.36123600559
70	117374	45	109.66129765972
70	121184	46	112.05723726258
70	125054	47	113.90184499709
70	128951	48	115.27243809407
70	132815	49	117.78119633548
70	136652	50	119.41227778319
70	140645	51	120.53225156515
70	144839	52	121.65253074488
70	148931	53	122.69609229104
70	153155	54	123.20803959277
70	157205	55	123.4
70	161264	56	123.4
70	165410	57	123.4
70	169529	58	123.4
70	173696	59	123.4
70	177908	60	123.4
70	182357	61	123.4
70	186434	62	123.4
70	190547	63	123.4
70	194786	64	123.4
70	199079	65	123.4
70	203477	66	123.4
70	207977	67	123.4
70	212750	68	123.4
70	217289	69	123.4
70	221972	70	123.4
70	226538	71	123.4
70	231164	72	123.4
70	235586	73	123.4
70	240236	74	123.4
70	244850	75	123.4
70	249632	76	123.4
70	254408	77	123.4
70	259346	78	123.4
70	264014	79	123.4
70	268829	80	123.4
70	273764	81	123.4
70	278768	82	123.4
70	283754	83	123.4
70	288587	84	123.4
70	293714	85	123.4
70	298745	86	123.4
70	303725	87	123.4
70	308543	88	123.4
70	313409	89	123.4
70	318351	90	123.4
70	323044	91	123.4
70	327869	92	123.4
70	332682	93	123.4
70	337543	94	123.4
70	342206	95	123.4
70	346863	96	123.4
70	351739	97	123.4
70	356450	98	123.4
70	361071	99	123.4
70	365704	100	123.4
70	370388	101	123.4
70	374958	102	123.4
70	379756	103	123.4
70	384620	104	123.4
70	389697	105	123.4
70	394633	106	123.4
70	399272	107	123.4
70	403833	108	123.4
70	408565	109	123.4
70	413291	110	123.4
70	417906	111	123.4
70	422575	112	123.4
70	427091	113	123.4
70	431733	114	123.4
70	436435	115	123.4
70	441065	116	123.4
49	2616	3	0.973
49	3637	4	1.607007014193
49	4755	5	0.973
49	5901	6	1.1795031664382
49	7238	7	1.2220976439725
49	9041	8	1.272814940205
49	10882	9	0.973
49	12552	10	1.1864354241996
49	14313	11	1.1461064497112
49	16174	12	1.1844052512575
49	18108	13	0.973
49	20234	14	1.2981340038601
49	22482	15	0.973
49	24781	16	1.439985265285
49	27243	17	0.973
49	29769	18	0.973
49	32352	19	1.4987519522698
49	35039	20	0.973
49	37942	21	1.3277819064709
49	40744	22	0.973
49	43399	23	1.2943525713014
49	46292	24	1.1963879036517
49	49126	25	0.973
49	52132	26	1.3132109677161
49	55164	27	1.1632125690811
49	58336	28	1.2220978438436
49	61389	29	1.305652724082
49	64722	30	1.1645305655502
49	67939	31	1.1593026591593
49	71264	32	1.1615431259006
49	74604	33	0.973
49	77941	34	1.5976393780468
49	81365	35	0.973
49	84744	36	1.329809436955
49	88331	37	0.973
49	91973	38	1.5627033337212
49	95666	39	0.973
49	99179	40	1.4431722617262
49	102737	41	0.973
49	106373	42	1.5845177228206
49	109961	43	0.973
49	113603	44	1.5438960709596
49	117374	45	0.973
49	121184	46	1.1514906447597
49	125054	47	1.2229021408531
49	128951	48	1.2807171329137
49	132815	49	0.973
49	136652	50	1.2676427206956
49	140645	51	0.973
49	144839	52	1.2510263610708
49	148931	53	1.2922881058209
49	153155	54	0.973
49	157205	55	1.2646635739826
49	161264	56	0.973
49	165410	57	1.2872494141818
49	169529	58	1.3580870144186
49	173696	59	1.2526986468542
49	177908	60	0.973
49	182357	61	1.5156621292364
49	186434	62	0.973
49	190547	63	1.3521847670621
49	194786	64	0.973
49	199079	65	0.973
49	203477	66	1.4077569929871
49	207977	67	1.2355727580286
49	212750	68	1.3125595656919
49	217289	69	1.2009959399567
49	221972	70	1.1630697754816
49	226538	71	0.973
49	231164	72	1.2762457486763
49	235586	73	0.973
49	240236	74	1.3078905493041
49	244850	75	0.973
49	249632	76	1.2466589704538
49	254408	77	1.2841068192111
49	259346	78	0.973
49	264014	79	1.1448745045992
49	268829	80	1.5775272547679
49	273764	81	0.973
49	278768	82	1.2009337638094
49	283754	83	1.1406543425428
49	288587	84	1.2733523103618
49	293714	85	1.4013791123156
49	298745	86	0.973
49	303725	87	0.973
49	308543	88	1.5806682959236
49	313409	89	0.973
49	318351	90	0.973
49	323044	91	0.973
49	327869	92	1.441531578567
49	332682	93	0.973
49	337543	94	1.2798385803456
49	342206	95	0.973
49	346863	96	1.2172736846168
49	351739	97	1.3353625294121
49	356450	98	1.2749752363765
49	361071	99	0.973
49	365704	100	0.973
49	370388	101	1.3157956554331
49	374958	102	1.2214370837691
49	379756	103	1.3147598556685
49	384620	104	0.973
49	389697	105	1.3754490718151
49	394633	106	1.2488513158989
49	399272	107	0.973
49	403833	108	1.2381042107065
49	408565	109	1.2400667674584
49	413291	110	0.973
49	417906	111	1.1347210149014
49	422575	112	1.3882092994295
49	427091	113	0.973
49	431733	114	0.973
49	436435	115	1.2832199225286
49	441065	116	1.267855784703
49	445329	117	0.973
49	449588	118	1.1773243002489
49	454228	119	0.973
49	458550	120	1.289611884319
49	462836	121	0.973
48	2616	3	-0.24847339908592
48	3637	4	0.87653346708976
48	4755	5	-0.37435006583109
48	5901	6	-0.012121059931815
48	7238	7	0.087111444678158
48	9041	8	0.17610641638748
48	10882	9	-0.26431494345888
48	12552	10	0.0060463068075478
48	14313	11	-0.096537667326629
48	16174	12	0.012367381481454
48	18108	13	-0.12723408872262
48	20234	14	0.28518628072925
48	22482	15	-0.25723398220725
48	24781	16	0.528283291962
48	27243	17	-0.3972166206222
48	29769	18	-0.34324483945966
48	32352	19	0.6846777650062
48	35039	20	-0.3401075147558
48	37942	21	0.3048304556869
48	40744	22	-0.53437368012965
48	43399	23	0.29408559948206
48	46292	24	0.02694499026984
48	49126	25	-0.34235692187212
48	52132	26	0.33714177249931
48	55164	27	-0.054971085395664
48	58336	28	0.089384734630585
48	61389	29	0.23961086315103
48	64722	30	-0.073329668259248
48	67939	31	-0.08000916056335
48	71264	32	-0.06900650751777
48	74604	33	-0.45742932055146
48	77941	34	0.81988851632923
48	81365	35	-0.42683490295894
48	84744	36	0.29250796581618
48	88331	37	-0.63721262174658
48	91973	38	0.75480634113774
48	95666	39	-0.63654848444276
48	99179	40	0.53914287569933
48	102737	41	-0.73764313897118
48	106373	42	0.81254764762707
48	109961	43	-0.66780753992498
48	113603	44	0.70721956458874
48	117374	45	-0.28256957023405
48	121184	46	-0.093851360725239
48	125054	47	0.077310320455581
48	128951	48	0.17916081380099
48	132815	49	-0.50063240667805
48	136652	50	0.21430337009951
48	140645	51	-0.39193738345057
48	144839	52	0.21712624887004
48	148931	53	0.25568240275607
48	153155	54	-0.38710325118154
48	157205	55	0.22788589983247
48	161264	56	-0.46134157222696
48	165410	57	0.33571267826483
48	169529	58	0.38500063470565
48	173696	59	0.11502030771226
48	177908	60	-0.7823009910062
48	182357	61	0.72620878485031
48	186434	62	-0.69957388169132
48	190547	63	0.44364771409892
48	194786	64	-0.13368757045828
48	199079	65	-0.38050668174401
48	203477	66	0.56601988733746
48	207977	67	0.10283182235435
48	212750	68	0.23073524306528
48	217289	69	-0.0067074235994369
48	221972	70	-0.082746745087206
48	226538	71	-0.52969030523673
48	231164	72	0.23977244319394
48	235586	73	-0.43449460226111
48	240236	74	0.35272669396363
48	244850	75	-0.34620874002576
48	249632	76	0.21778582595289
48	254408	77	0.2493098101113
48	259346	78	-0.31538001168519
48	264014	79	-0.080884409835562
48	268829	80	0.77624611114152
48	273764	81	-0.64160933857784
48	278768	82	0.066864328924567
48	283754	83	-0.10339608695358
48	288587	84	0.23802263243124
48	293714	85	0.41549640032463
48	298745	86	-0.70773115381598
48	303725	87	-0.18046014220454
48	308543	88	0.82729588984512
48	313409	89	-0.1485275994055
48	318351	90	-0.18095998535864
48	323044	91	-0.29721611924469
48	327869	92	0.55267094704323
48	332682	93	-0.42542473692447
48	337543	94	0.23117572069168
48	342206	95	-0.17386946035549
48	346863	96	0.087322368752211
48	351739	97	0.30455210176297
48	356450	98	0.14226950285956
48	361071	99	-0.44481234601699
48	365704	100	-0.48253314825706
48	370388	101	0.38770443433896
48	374958	102	0.097587229218334
48	379756	103	0.26671495824121
48	384620	104	-0.6203047723975
48	389697	105	0.46319483383559
48	394633	106	0.12228636350483
48	399272	107	-0.11283687571995
48	403833	108	0.099505863850936
48	408565	109	0.089294449426234
48	413291	110	-0.72170007182285
48	417906	111	-0.1012793474365
48	422575	112	0.53506285557523
48	427091	113	-0.41584624140523
48	431733	114	-0.10865017469041
48	436435	115	0.32448536972515
48	441065	116	0.21311675175093
48	445329	117	-0.16587547655217
48	449588	118	-0.0031183569226414
48	454228	119	-0.33093882165849
48	458550	120	0.32793346070684
48	462836	121	-0.36821276298724
31	1505	2	1.2848106350284
31	2616	3	1.0363372359425
31	3637	4	1.9128707030322
31	4755	5	1.5385206372011
31	5901	6	1.5263995772693
31	7238	7	1.6135110219475
31	9041	8	1.789617438335
31	10882	9	1.5253024948761
31	12552	10	1.5313488016836
31	14313	11	1.434811134357
31	16174	12	1.4471785158385
31	18108	13	1.3199444271158
31	20234	14	1.6051307078451
31	22482	15	1.3478967256378
31	24781	16	1.8761800175998
31	27243	17	1.4789633969776
31	29769	18	1.135718557518
31	32352	19	1.8203963225242
31	35039	20	1.4802888077684
31	37942	21	1.7851192634553
31	40744	22	1.2507455833256
31	43399	23	1.5448311828077
31	46292	24	1.5717761730775
31	49126	25	1.2294192512054
31	52132	26	1.5665610237047
31	55164	27	1.511589938309
31	58336	28	1.6009746729396
31	61389	29	1.8405855360907
31	64722	30	1.7672558678314
31	67939	31	1.6872467072681
31	71264	32	1.6182401997503
31	74604	33	1.1608108791988
31	77941	34	1.9806993955281
31	81365	35	1.5538644925691
31	84744	36	1.8463724583853
31	88331	37	1.2091598366387
31	91973	38	1.9639661777765
31	95666	39	1.3274176933337
31	99179	40	1.866560569033
31	102737	41	1.1289174300618
31	106373	42	1.9414650776889
31	109961	43	1.2736575377639
31	113603	44	1.9808771023527
31	117374	45	1.6983075321186
31	121184	46	1.6044561713934
31	125054	47	1.681766491849
31	128951	48	1.86092730565
31	132815	49	1.3602948989719
31	136652	50	1.5745982690714
31	140645	51	1.1826608856209
31	144839	52	1.3997871344909
31	148931	53	1.655469537247
31	153155	54	1.2683662860654
31	157205	55	1.4962521858979
31	161264	56	1.0349106136709
31	165410	57	1.3706232919358
31	169529	58	1.7556239266414
31	173696	59	1.8706442343537
31	177908	60	1.0883432433475
31	182357	61	1.8145520281978
31	186434	62	1.1149781465065
31	190547	63	1.5586258606054
31	194786	64	1.4249382901471
31	199079	65	1.0444316084031
31	203477	66	1.6104514957406
31	207977	67	1.7132833180949
31	212750	68	1.9440185611602
31	217289	69	1.9373111375608
31	221972	70	1.8545643924735
31	226538	71	1.3248740872368
31	231164	72	1.5646465304308
31	235586	73	1.1301519281697
31	240236	74	1.4828786221333
31	244850	75	1.1366698821075
31	249632	76	1.3544557080604
31	254408	77	1.6037655181717
31	259346	78	1.2883855064865
31	264014	79	1.207501096651
31	268829	80	1.9837472077925
31	273764	81	1.3421378692146
31	278768	82	1.4090021981392
31	283754	83	1.3056061111856
31	288587	84	1.5436287436169
31	293714	85	1.9591251439415
31	298745	86	1.2513939901255
31	303725	87	1.070933847921
31	308543	88	1.8982297377661
31	313409	89	1.7497021383606
31	318351	90	1.5687421530019
31	323044	91	1.2715260337573
31	327869	92	1.8241969808005
31	332682	93	1.398772243876
31	337543	94	1.6299479645677
31	342206	95	1.4560785042122
31	346863	96	1.5434008729644
31	351739	97	1.8479529747274
31	356450	98	1.9902224775869
31	361071	99	1.54541013157
31	365704	100	1.0628769833129
31	370388	101	1.4505814176518
31	374958	102	1.5481686468702
31	379756	103	1.8148836051114
31	384620	104	1.1945788327139
31	389697	105	1.6577736665495
31	394633	106	1.7800600300543
31	399272	107	1.6672231543344
31	403833	108	1.7667290181853
31	408565	109	1.8560234676115
31	413291	110	1.1343233957887
31	417906	111	1.0330440483522
31	422575	112	1.5681069039274
31	427091	113	1.1522606625222
31	431733	114	1.0436104878318
31	436435	115	1.3680958575569
31	441065	116	1.5812126093078
31	445329	117	1.4153371327557
31	449588	118	1.412218775833
31	454228	119	1.0812799541745
31	458550	120	1.4092134148814
31	462836	121	1.0410006518941
7	432	1	37.83
7	1505	2	37.83
7	2616	3	39.114810635028
7	3637	4	40.151147870971
7	4755	5	42.064018574003
7	5901	6	43.602539211204
7	7238	7	45.128938788474
7	9041	8	46.742449810421
7	10882	9	48.532067248756
7	12552	10	50.057369743632
7	14313	11	51.588718545316
7	16174	12	53.023529679673
7	18108	13	54.470708195511
7	20234	14	55.790652622627
7	22482	15	57.395783330472
7	24781	16	58.74368005611
7	27243	17	60.61986007371
7	29769	18	62.098823470687
7	32352	19	63.234542028205
7	35039	20	65.05493835073
7	37942	21	66.535227158498
7	40744	22	68.320346421953
7	43399	23	69.571092005279
7	46292	24	71.115923188087
7	49126	25	72.687699361164
7	52132	26	73.91711861237
7	55164	27	75.483679636074
7	58336	28	76.995269574383
7	61389	29	78.596244247323
7	64722	30	80.436829783414
7	67939	31	82.204085651245
7	71264	32	83.891332358513
7	74604	33	85.509572558263
7	77941	34	86.670383437462
7	81365	35	88.65108283299
7	84744	36	90.204947325559
7	88331	37	92.051319783945
7	91973	38	93.260479620583
7	95666	39	95.22444579836
7	99179	40	96.551863491693
7	102737	41	98.418424060727
7	106373	42	99.547341490788
7	109961	43	101.48880656848
7	113603	44	102.76246410624
7	117374	45	104.74334120859
7	121184	46	106.44164874071
7	125054	47	108.04610491211
7	128951	48	109.72787140395
7	132815	49	111.5887987096
7	136652	50	112.94909360858
7	140645	51	114.52369187765
7	144839	52	115.70635276327
7	148931	53	117.10613989776
7	153155	54	118.75209381586
7	157205	55	120.00790896622
7	161264	56	121.32352761395
7	165410	57	122.12665705125
7	169529	58	122.83194732473
7	173696	59	123.23838464201
7	177908	60	123.4
7	182357	61	123.4
7	186434	62	123.4
7	190547	63	123.4
7	194786	64	123.4
7	199079	65	123.4
7	203477	66	123.4
7	207977	67	123.4
7	212750	68	123.4
7	217289	69	123.4
7	221972	70	123.4
7	226538	71	123.4
7	231164	72	123.4
7	235586	73	123.4
7	240236	74	123.4
7	244850	75	123.4
7	249632	76	123.4
7	254408	77	123.4
7	259346	78	123.4
7	264014	79	123.4
7	268829	80	123.4
7	273764	81	123.4
7	278768	82	123.4
7	283754	83	123.4
7	288587	84	123.4
7	293714	85	123.4
7	298745	86	123.4
7	303725	87	123.4
7	308543	88	123.4
7	313409	89	123.4
7	318351	90	123.4
7	323044	91	123.4
7	327869	92	123.4
7	332682	93	123.4
7	337543	94	123.4
7	342206	95	123.4
7	346863	96	123.4
7	351739	97	123.4
7	356450	98	123.4
7	361071	99	123.4
7	365704	100	123.4
7	370388	101	123.4
7	374958	102	123.4
7	379756	103	123.4
7	384620	104	123.4
7	389697	105	123.4
7	394633	106	123.4
7	399272	107	123.4
7	403833	108	123.4
7	408565	109	123.4
7	413291	110	123.4
7	417906	111	123.4
7	422575	112	123.4
7	427091	113	123.4
7	431733	114	123.4
7	436435	115	123.4
7	441065	116	123.4
7	445329	117	123.4
7	449588	118	123.4
7	454228	119	123.4
7	458550	120	123.4
7	462836	121	123.4
6	432	1	123.4
6	1505	2	123.4
6	2616	3	123.4
6	3637	4	123.4
6	4755	5	123.4
6	5901	6	123.4
6	7238	7	123.4
6	9041	8	123.4
6	10882	9	123.4
6	12552	10	123.4
6	14313	11	123.4
6	16174	12	123.4
6	18108	13	123.4
6	20234	14	123.4
6	22482	15	123.4
6	24781	16	123.4
6	27243	17	123.4
6	29769	18	123.4
6	32352	19	123.4
6	35039	20	123.4
6	37942	21	123.4
6	40744	22	123.4
6	43399	23	123.4
6	46292	24	123.4
6	49126	25	123.4
6	52132	26	123.4
6	55164	27	123.4
6	58336	28	123.4
6	61389	29	123.4
6	64722	30	123.4
6	67939	31	123.4
6	71264	32	123.4
6	74604	33	123.4
6	77941	34	123.4
6	81365	35	123.4
6	84744	36	123.4
6	88331	37	123.4
6	91973	38	123.4
6	95666	39	123.4
6	99179	40	123.4
6	102737	41	123.4
6	106373	42	123.4
6	109961	43	123.4
6	113603	44	123.4
6	117374	45	123.4
6	121184	46	123.4
6	125054	47	123.4
6	128951	48	123.4
6	132815	49	123.4
6	136652	50	123.4
6	140645	51	123.4
6	144839	52	123.4
6	148931	53	123.4
6	153155	54	123.26398659773
6	157205	55	123.0845844334
6	161264	56	122.40588343163
6	165410	57	121.78890491458
6	169529	58	120.61342112546
6	173696	59	118.93130750594
6	177908	60	117.07197002643
6	182357	61	115.98362678308
6	186434	62	114.16907475488
6	190547	63	113.05409660838
6	194786	64	111.49547074777
6	199079	65	110.07053245762
6	203477	66	109.02610084922
6	207977	67	107.41564935348
6	212750	68	105.70236603539
6	217289	69	103.75834747422
6	221972	70	101.82103633666
6	226538	71	99.966471944191
6	231164	72	98.641597856954
6	235586	73	97.076951326523
6	240236	74	95.946799398353
6	244850	75	94.46392077622
6	249632	76	93.327250894113
6	254408	77	91.972795186052
6	259346	78	90.36902966788
6	264014	79	89.080644161394
6	268829	80	87.873143064743
6	273764	81	85.88939585695
6	278768	82	84.547257987736
6	283754	83	83.138255789597
6	288587	84	81.832649678411
6	293714	85	80.289020934794
6	298745	86	78.329895790853
6	303725	87	77.078501800727
6	308543	88	76.007567952806
6	313409	89	74.10933821504
6	318351	90	72.359636076679
6	323044	91	70.790893923678
6	327869	92	69.51936788992
6	332682	93	67.69517090912
6	337543	94	66.296398665244
6	342206	95	64.666450700676
6	346863	96	63.210372196464
6	351739	97	61.666971323499
6	356450	98	59.819018348772
6	361071	99	57.828795871185
6	365704	100	56.283385739615
6	370388	101	55.220508756302
6	374958	102	53.76992733865
6	379756	103	52.22175869178
6	384620	104	50.406875086669
6	389697	105	49.212296253955
6	394633	106	47.554522587406
6	399272	107	45.774462557351
6	403833	108	44.107239403017
6	408565	109	42.340510384832
6	413291	110	40.48448691722
6	417906	111	39.350163521431
6	422575	112	38.317119473079
6	427091	113	36.749012569152
6	431733	114	35.59675190663
6	436435	115	34.553141418798
6	441065	116	33.185045561241
6	445329	117	31.603832951933
6	449588	118	30.188495819177
6	454228	119	28.776277043344
6	458550	120	27.69499708917
6	462836	121	26.285783674289
131	16174	12	0.973
131	18108	13	0.973
131	20234	14	1.4040665615193
131	22482	15	1.2684056969082
131	24781	16	1.2953356307124
131	27243	17	0.973
131	29769	18	1.2924573594947
131	32352	19	1.2357788505458
131	35039	20	0.973
131	37942	21	1.2388164530722
131	40744	22	1.1685195193667
131	43399	23	1.1869978555219
131	46292	24	1.325583050338
131	49126	25	0.973
131	52132	26	1.5094731663318
131	55164	27	1.1742625246898
131	58336	28	0.973
131	61389	29	1.4792412863675
131	64722	30	1.3717566058936
131	67939	31	0.973
131	71264	32	1.2789138196849
131	74604	33	0.973
131	77941	34	0.973
131	81365	35	1.3381907559508
131	84744	36	0.973
131	88331	37	1.1843419810241
131	91973	38	1.5281222749989
131	95666	39	0.973
131	99179	40	0.973
131	102737	41	1.2925606019878
131	106373	42	1.1483936376598
131	109961	43	1.2826972681462
131	113603	44	0.973
131	117374	45	0.973
131	121184	46	1.1852344159002
131	125054	47	1.6243029397026
131	128951	48	0.973
131	132815	49	1.2417081903514
131	136652	50	1.4524556361629
131	140645	51	1.2600928096318
131	144839	52	0.973
131	148931	53	0.973
131	153155	54	0.973
131	157205	55	1.1794294560716
131	161264	56	1.1990720874747
131	165410	57	1.418807982709
131	169529	58	0.973
131	173696	59	1.3617058383915
131	177908	60	1.4255653567457
131	182357	61	1.1991294260618
131	186434	62	0.973
131	190547	63	1.3373787181163
131	194786	64	1.2090395612175
131	199079	65	1.1898918617875
131	203477	66	0.973
131	207977	67	1.1841750312217
131	212750	68	1.4339664460664
131	217289	69	0.973
131	221972	70	0.973
131	226538	71	1.2309617892354
131	231164	72	0.973
131	235586	73	1.5704043369413
131	240236	74	1.1992236960884
131	244850	75	0.973
131	249632	76	1.1903512057263
131	254408	77	1.1809779193083
131	259346	78	1.1555553025691
131	264014	79	0.973
131	268829	80	1.2667553402186
131	273764	81	1.3158683098767
131	278768	82	0.973
131	283754	83	1.5928758790532
131	288587	84	0.973
131	293714	85	1.4351486848932
131	298745	86	1.2014139523754
131	303725	87	1.1669556844665
131	308543	88	0.973
131	313409	89	0.973
131	318351	90	1.29969936002
131	323044	91	1.4114132392839
131	327869	92	0.973
131	332682	93	1.2779477114394
131	337543	94	1.3626507126168
131	342206	95	0.973
131	346863	96	1.2372498908818
131	351739	97	0.973
131	356450	98	1.3565933184689
131	361071	99	0.973
131	365704	100	1.4294097519284
131	370388	101	0.973
131	374958	102	1.1696883883109
131	379756	103	1.4605963300983
131	384620	104	0.973
131	389697	105	1.1973456806617
131	394633	106	1.1622980113297
131	399272	107	1.3159052698374
131	403833	108	0.973
131	408565	109	0.973
131	413291	110	1.2900253733821
131	417906	111	1.2603798186981
131	422575	112	1.1662840233956
131	427091	113	0.973
131	431733	114	1.2722671093574
131	436435	115	1.2950856202156
131	441065	116	0.973
131	445329	117	0.973
131	449588	118	1.4587065575686
131	454228	119	1.236314584592
131	458550	120	1.313108879526
131	462836	121	0.973
131	467128	122	1.1726418811637
131	471616	123	1.2607108202209
130	16174	12	-0.30019463786548
130	18108	13	-0.32737669271966
130	20234	14	0.57547178103027
130	22482	15	0.17505524628278
130	24781	16	0.19461238255779
130	27243	17	-1.008859488466
130	29769	18	0.37736621934982
130	32352	19	0.15532546728268
130	35039	20	-0.56543141808194
130	37942	21	0.26027175430578
130	40744	22	0.0073904406744987
130	43399	23	0.059712079819292
130	46292	24	0.3619535996113
130	49126	25	-0.31567184859887
130	52132	26	0.65718524646945
130	55164	27	-0.059001550311223
130	58336	28	-0.95899352824161
130	61389	29	0.7311472061261
130	64722	30	0.34467066661455
130	67939	31	-0.27501529641449
130	71264	32	0.17058675094409
130	74604	33	-0.32234968966963
130	77941	34	-0.56083576168122
130	81365	35	0.45128888343907
130	84744	36	-0.40654737129021
130	88331	37	0.074801845002504
130	91973	38	0.73423670837656
130	95666	39	-0.14727424969897
130	99179	40	-0.37889665341936
130	102737	41	0.27223936701193
130	106373	42	-0.095181755108573
130	109961	43	0.21525401204644
130	113603	44	-0.35607292120081
130	117374	45	-0.43203705696657
130	121184	46	0.10144944283532
130	125054	47	0.90130748925731
130	128951	48	-0.81266830675304
130	132815	49	0.20951681141742
130	136652	50	0.55257210624404
130	140645	51	0.1105089050252
130	144839	52	-0.44154423285671
130	148931	53	-0.17447205496556
130	153155	54	-0.24230139446445
130	157205	55	0.043448205804452
130	161264	56	0.090194798540324
130	165410	57	0.51599229359999
130	169529	58	-0.73984035290778
130	173696	59	0.48221838148311
130	177908	60	0.45759226894006
130	182357	61	-0.014116942184046
130	186434	62	-0.72691911715083
130	190547	63	0.37955067888834
130	194786	64	0.044909861404449
130	199079	65	-0.0023904126137495
130	203477	66	-0.37113458639942
130	207977	67	0.031076409853995
130	212750	68	0.52451022597961
130	217289	69	-0.40730010694824
130	221972	70	-0.13806798588485
130	226538	71	0.14490069425665
130	231164	72	-0.31826820550486
130	235586	73	0.79126444435678
130	240236	74	-0.0083279889076948
130	244850	75	-0.43981639668345
130	249632	76	0.02160118566826
130	254408	77	-0.0038569227326661
130	259346	78	-0.068333598054805
130	264014	79	-0.38571426010853
130	268829	80	0.28877037568725
130	273764	81	0.31770866806619
130	278768	82	-0.6071130100172
130	283754	83	0.85583734349348
130	288587	84	-0.89326018374413
130	293714	85	0.62714190105908
130	298745	86	0.027759170392528
130	303725	87	-0.05370584432967
130	308543	88	-0.19882605411112
130	313409	89	-0.34920425689779
130	318351	90	0.35671745031141
130	323044	91	0.46497729211114
130	327869	92	-0.76112683233805
130	332682	93	0.29365297406912
130	337543	94	0.38345634983853
130	342206	95	-0.1758686718531
130	346863	96	0.10533116478473
130	351739	97	-0.71103784069419
130	356450	98	0.48361506219953
130	361071	99	-0.41240360517986
130	365704	100	0.59093437227421
130	370388	101	-0.41989156231284
130	374958	102	-0.0027030103374273
130	379756	103	0.58927690354176
130	384620	104	-0.14937394182198
130	389697	105	0.011663596844301
130	394633	106	-0.068356897681952
130	399272	107	0.25164617248811
130	403833	108	-0.11070193559863
130	408565	109	-0.61544731864706
130	413291	110	0.30810966598801
130	417906	111	0.17804282577708
130	422575	112	-0.054343754891306
130	427091	113	-0.22919759713113
130	431733	114	0.22357495664619
130	436435	115	0.22321860305965
130	441065	116	-0.52928226941847
130	445329	117	-0.36304591246438
130	449588	118	0.69618654937623
130	454228	119	0.10405339603312
130	458550	120	0.23110674414784
130	462836	121	-0.85831820056774
130	467128	122	0.031307778554037
130	471616	123	0.25403927871957
127	14313	11	1.6233308509631
127	16174	12	1.3231362130977
127	18108	13	0.99575952037799
127	20234	14	1.5712313014083
127	22482	15	1.746286547691
127	24781	16	1.9408989302488
127	27243	17	0.93203944178282
127	29769	18	1.3094056611326
127	32352	19	1.4647311284153
127	35039	20	0.89929971033338
127	37942	21	1.1595714646392
127	40744	22	1.1669619053137
127	43399	23	1.2266739851329
127	46292	24	1.5886275847442
127	49126	25	1.2729557361454
127	52132	26	1.9301409826148
127	55164	27	1.8711394323036
127	58336	28	0.912145904062
127	61389	29	1.6432931101881
127	64722	30	1.9879637768026
127	67939	31	1.7129484803881
127	71264	32	1.8835352313322
127	74604	33	1.5611855416626
127	77941	34	1.0003497799814
127	81365	35	1.4516386634205
127	84744	36	1.0450912921302
127	88331	37	1.1198931371327
127	91973	38	1.8541298455093
127	95666	39	1.7068555958103
127	99179	40	1.327958942391
127	102737	41	1.6001983094029
127	106373	42	1.5050165542943
127	109961	43	1.7202705663408
127	113603	44	1.36419764514
127	117374	45	0.9321605881734
127	121184	46	1.0336100310087
127	125054	47	1.934917520266
127	128951	48	1.122249213513
127	132815	49	1.3317660249304
127	136652	50	1.8843381311744
127	140645	51	1.9948470361996
127	144839	52	1.5533028033429
127	148931	53	1.3788307483774
127	153155	54	1.1365293539129
127	157205	55	1.1799775597174
127	161264	56	1.2701723582577
127	165410	57	1.7861646518577
127	169529	58	1.0463242989499
127	173696	59	1.528542680433
127	177908	60	1.9861349493731
127	182357	61	1.972018007189
127	186434	62	1.2450988900382
127	190547	63	1.6246495689265
127	194786	64	1.669559430331
127	199079	65	1.6671690177172
127	203477	66	1.2960344313178
127	207977	67	1.3271108411718
127	212750	68	1.8516210671514
127	217289	69	1.4443209602032
127	221972	70	1.3062529743183
127	226538	71	1.451153668575
127	231164	72	1.1328854630701
127	235586	73	1.9241499074269
127	240236	74	1.9158219185192
127	244850	75	1.4760055218358
127	249632	76	1.497606707504
127	254408	77	1.4937497847714
127	259346	78	1.4254161867165
127	264014	79	1.039701926608
127	268829	80	1.3284723022953
127	273764	81	1.6461809703615
127	278768	82	1.0390679603443
127	283754	83	1.8949053038377
127	288587	84	1.0016451200936
127	293714	85	1.6287870211527
127	298745	86	1.6565461915452
127	303725	87	1.6028403472155
127	308543	88	1.4040142931044
127	313409	89	1.0548100362066
127	318351	90	1.411527486518
127	323044	91	1.8765047786292
127	327869	92	1.1153779462911
127	332682	93	1.4090309203602
127	337543	94	1.7924872701988
127	342206	95	1.6166185983457
127	346863	96	1.7219497631304
127	351739	97	1.0109119224362
127	356450	98	1.4945269846357
127	361071	99	1.0821233794559
127	365704	100	1.6730577517301
127	370388	101	1.2531661894172
127	374958	102	1.2504631790798
127	379756	103	1.8397400826216
127	384620	104	1.6903661407996
127	389697	105	1.7020297376439
127	394633	106	1.6336728399619
127	399272	107	1.8853190124501
127	403833	108	1.7746170768514
127	408565	109	1.1591697582044
127	413291	110	1.4672794241924
127	417906	111	1.6453222499695
127	422575	112	1.5909784950782
127	427091	113	1.361780897947
127	431733	114	1.5853558545932
127	436435	115	1.8085744576529
127	441065	116	1.2792921882344
127	445329	117	0.91624627577001
127	449588	118	1.6124328251462
127	454228	119	1.7164862211794
127	458550	120	1.9475929653272
127	462836	121	1.0892747647595
127	467128	122	1.1205825433135
127	471616	123	1.3746218220331
126	12552	10	226.6
126	14313	11	226.6
126	16174	12	226.6
126	18108	13	226.6
126	20234	14	226.6
126	22482	15	226.6
126	24781	16	226.6
126	27243	17	226.6
126	29769	18	226.6
126	32352	19	226.6
126	35039	20	226.6
126	37942	21	226.6
126	40744	22	226.6
126	43399	23	226.6
126	46292	24	226.6
126	49126	25	226.6
126	52132	26	226.6
126	55164	27	226.6
126	58336	28	226.6
126	61389	29	226.6
126	64722	30	226.6
126	67939	31	226.6
126	71264	32	226.6
126	74604	33	226.6
126	77941	34	226.6
126	81365	35	226.6
126	84744	36	226.6
126	88331	37	226.6
126	91973	38	226.6
126	95666	39	226.6
126	99179	40	226.6
126	102737	41	226.6
126	106373	42	226.6
126	109961	43	226.6
126	113603	44	226.6
126	117374	45	226.6
126	121184	46	226.6
126	125054	47	226.6
126	128951	48	226.6
126	132815	49	226.6
126	136652	50	226.6
126	140645	51	226.6
126	144839	52	226.6
126	148931	53	226.6
126	153155	54	226.6
126	157205	55	226.6
126	161264	56	226.60019685865
126	165410	57	226.77985448015
126	169529	58	227.25012276232
126	173696	59	227.78853645723
126	177908	60	228.95848051104
126	182357	61	230.80269595601
126	186434	62	232.76074872901
126	190547	63	234.00584761905
126	194786	64	235.63049718798
126	199079	65	237.30005661831
126	203477	66	238.96722563602
126	207977	67	240.26326006734
126	212750	68	241.59037090851
126	217289	69	243.44199197566
126	221972	70	244.88631293587
126	226538	71	246.19256591019
126	231164	72	247.64371957876
126	235586	73	248.77660504183
126	240236	74	250.70075494926
126	244850	75	252.61657686778
126	249632	76	254.09258238961
126	254408	77	255.59018909712
126	259346	78	257.08393888189
126	264014	79	258.50935506861
126	268829	80	259.54905699521
126	273764	81	260.87752929751
126	278768	82	262.52371026787
126	283754	83	263.56277822821
126	288587	84	265.45768353205
126	293714	85	266.45932865215
126	298745	86	268.0881156733
126	303725	87	269.74466186484
126	308543	88	271.34750221206
126	313409	89	272.75151650516
126	318351	90	273.80632654137
126	323044	91	275.21785402789
126	327869	92	277.09435880652
126	332682	93	278.20973675281
126	337543	94	279.61876767317
126	342206	95	281.41125494337
126	346863	96	283.02787354171
126	351739	97	284.74982330484
126	356450	98	285.76073522728
126	361071	99	287.25526221192
126	365704	100	288.33738559137
126	370388	101	290.0104433431
126	374958	102	291.26360953252
126	379756	103	292.5140727116
126	384620	104	294.35381279422
126	389697	105	296.04417893502
126	394633	106	297.74620867266
126	399272	107	299.37988151263
126	403833	108	301.26520052508
126	408565	109	303.03981760193
126	413291	110	304.19898736013
126	417906	111	305.66626678432
126	422575	112	307.31158903429
126	427091	113	308.90256752937
126	431733	114	310.26434842732
126	436435	115	311.84970428191
126	441065	116	313.65827873956
126	445329	117	314.9375709278
126	449588	118	315.85381720357
126	454228	119	317.46625002871
126	458550	120	319.18273624989
126	462836	121	321.13032921522
126	467128	122	322.21960397998
126	471616	123	323.34018652329
125	12552	10	31.761142857143
125	14313	11	31.761142857143
125	16174	12	33.913215756705
125	18108	13	35.667316336355
125	20234	14	36.987408957656
125	22482	15	39.070412740094
125	24781	16	41.385489763319
125	27243	17	43.958567202278
125	29769	18	45.194185205098
125	32352	19	46.930082995857
125	35039	20	48.871897977527
125	37942	21	50.064112450655
125	40744	22	51.601372906634
125	43399	23	53.148430975393
125	46292	24	54.774650201397
125	49126	25	56.880716485173
125	52132	26	58.568292089662
125	55164	27	61.127107563758
125	58336	28	63.607703839726
125	61389	29	64.816948695397
125	64722	30	66.995485847189
125	67939	31	69.630957825579
125	71264	32	71.901838096722
125	74604	33	74.398867660545
125	77941	34	76.468553635778
125	81365	35	77.79473162981
125	84744	36	79.719189743602
125	88331	37	81.104682199455
125	91973	38	82.589340529825
125	95666	39	85.047386953586
125	99179	40	87.310189800603
125	102737	41	89.070683941373
125	106373	42	91.192089700124
125	109961	43	93.187311646388
125	113603	44	95.46789891148
125	117374	45	97.27643521818
125	121184	46	98.512213826501
125	125054	47	99.882485410467
125	128951	48	102.44763320876
125	132815	49	103.93541502325
125	136652	50	105.70095626773
125	140645	51	108.19905024734
125	144839	52	110.84364746105
125	148931	53	112.90288317748
125	153155	54	114.73081879818
125	157205	55	116.2375319988
125	161264	56	117.80137801054
125	165410	57	119.05898136108
125	169529	58	120.75020460386
125	173696	59	121.64756076205
125	177908	60	122.57508830663
125	182357	61	123.20038513657
125	186434	62	123.4
125	190547	63	123.4
125	194786	64	123.4
125	199079	65	123.4
125	203477	66	123.4
125	207977	67	123.4
125	212750	68	123.4
125	217289	69	123.4
125	221972	70	123.4
125	226538	71	123.4
125	231164	72	123.4
125	235586	73	123.4
125	240236	74	123.4
125	244850	75	123.4
125	249632	76	123.4
125	254408	77	123.4
125	259346	78	123.4
125	264014	79	123.4
125	268829	80	123.4
125	273764	81	123.4
125	278768	82	123.4
125	283754	83	123.4
125	288587	84	123.4
125	293714	85	123.4
125	298745	86	123.4
125	303725	87	123.4
125	308543	88	123.4
125	313409	89	123.4
125	318351	90	123.4
125	323044	91	123.4
125	327869	92	123.4
125	332682	93	123.4
125	337543	94	123.4
125	342206	95	123.4
125	346863	96	123.4
125	351739	97	123.4
125	356450	98	123.4
125	361071	99	123.4
125	365704	100	123.4
125	370388	101	123.4
125	374958	102	123.4
125	379756	103	123.4
125	384620	104	123.4
125	389697	105	123.4
125	394633	106	123.4
125	399272	107	123.4
125	403833	108	123.4
125	408565	109	123.4
125	413291	110	123.4
125	417906	111	123.4
125	422575	112	123.4
125	427091	113	123.4
125	431733	114	123.4
125	436435	115	123.4
125	441065	116	123.4
125	445329	117	123.4
125	449588	118	123.4
125	454228	119	123.4
125	458550	120	123.4
125	462836	121	123.4
125	467128	122	123.4
125	471616	123	123.4
164	29769	18	0.973
164	32352	19	1.3023210967944
164	35039	20	1.3492562449657
164	37942	21	0.973
164	40744	22	0.973
164	43399	23	1.5422109689078
164	46292	24	0.973
164	49126	25	1.7276087475486
164	52132	26	0.973
164	55164	27	1.4572791492475
164	58336	28	1.2352861742595
164	61389	29	0.973
164	64722	30	1.2281312782238
164	67939	31	0.973
164	71264	32	1.1377903079446
164	74604	33	1.1397798520683
164	77941	34	1.1922695079428
164	81365	35	1.1665751010775
164	84744	36	1.3785086452459
164	88331	37	0.973
164	91973	38	1.16116323159
164	95666	39	1.167756080892
164	99179	40	0.973
164	102737	41	1.1784127597089
164	106373	42	1.3345483180651
164	109961	43	0.973
164	113603	44	1.5008676904343
164	117374	45	0.973
164	121184	46	1.4286426827183
164	125054	47	0.973
164	128951	48	1.2565170322084
164	132815	49	1.158978526854
164	136652	50	1.1612842240953
164	140645	51	1.424585561059
164	144839	52	0.973
164	148931	53	1.5373869238938
164	153155	54	0.973
164	157205	55	1.3962645078299
164	161264	56	0.973
164	165410	57	1.2711525714693
164	169529	58	1.2222609709226
164	173696	59	0.973
164	177908	60	1.1647996055821
164	182357	61	0.973
164	186434	62	1.4442066028008
164	190547	63	0.973
164	194786	64	1.4346299548463
164	199079	65	0.973
164	203477	66	1.2407047478624
164	207977	67	0.973
164	212750	68	1.2517463249098
164	217289	69	1.1551296676238
164	221972	70	1.3506482156161
164	226538	71	1.2094576016944
164	231164	72	0.973
164	235586	73	1.5291701014174
164	240236	74	0.973
164	244850	75	1.3230557714412
164	249632	76	1.2109036907977
164	254408	77	1.361145550276
164	259346	78	0.973
164	264014	79	1.2534867115071
164	268829	80	1.164810850709
164	273764	81	1.1977319974705
164	278768	82	1.501511088
164	283754	83	1.1838242528412
164	288587	84	0.973
164	293714	85	1.1962895721003
164	298745	86	1.2549313819419
164	303725	87	0.973
164	308543	88	1.2318226877625
164	313409	89	0.973
164	318351	90	1.5127252684837
164	323044	91	0.973
164	327869	92	1.1631072487832
164	332682	93	0.973
164	337543	94	1.2109590872568
164	342206	95	0.973
164	346863	96	1.4427834986033
164	351739	97	1.1892516526444
164	356450	98	0.973
164	361071	99	1.4648977517395
164	365704	100	0.973
164	370388	101	1.4611944989616
164	374958	102	1.2466604352374
164	379756	103	0.973
164	384620	104	1.2891197082027
164	389697	105	0.973
164	394633	106	1.4546871560035
164	399272	107	0.973
164	403833	108	1.3392582302859
164	408565	109	0.973
164	413291	110	1.1931654900474
164	417906	111	1.1815975947503
164	422575	112	0.973
164	427091	113	1.3224850637729
164	431733	114	1.1570527449828
164	436435	115	1.4361056250688
164	441065	116	0.973
164	445329	117	0.973
164	449588	118	1.3647036162195
164	454228	119	0.973
164	458550	120	1.3061437776332
164	462836	121	0.973
164	467128	122	1.2143297170767
164	471616	123	1.2957248032195
164	475993	124	0.973
164	480599	125	0.973
164	484992	126	1.493330071133
164	489343	127	1.177699307318
164	493607	128	0.973
164	497763	129	1.5142171756945
164	502012	130	0.973
164	506279	131	1.3128318845763
163	29769	18	-0.94868785211794
163	32352	19	0.46852520473632
163	35039	20	0.41605108611231
163	37942	21	-0.60224983159491
163	40744	22	-0.24021217958371
163	43399	23	0.88502152979355
163	46292	24	-0.89236902146471
163	49126	25	1.1447854938796
163	52132	26	-0.8885403867937
163	55164	27	0.65940523460836
163	58336	28	0.092819291865453
163	61389	29	-0.40479960456859
163	64722	30	0.12790402045591
163	67939	31	-0.31279838802973
163	71264	32	-0.094167567556724
163	74604	33	-0.077673773746938
163	77941	34	0.10635708225891
163	81365	35	0.0088089420460165
163	84744	36	0.49036733061075
163	88331	37	-0.22995873703621
163	91973	38	-0.042291345074773
163	95666	39	-0.019231155980378
163	99179	40	-0.13270519021899
163	102737	41	0.032122726086527
163	106373	42	0.3811189935077
163	109961	43	-0.30340535123833
163	113603	44	0.63706803275272
163	117374	45	-0.85194248799235
163	121184	46	0.58971300255507
163	125054	47	-0.46350061963312
163	128951	48	0.22366197407246
163	132815	49	-0.053447847720236
163	136652	50	-0.041652479674667
163	140645	51	0.50666443118826
163	144839	52	-0.65293989214115
163	148931	53	0.72451730188914
163	153155	54	-0.64437203644775
163	157205	55	0.47798432549462
163	161264	56	-0.22859709709883
163	165410	57	0.18981284322217
163	169529	58	0.061601492809132
163	173696	59	-0.2614637191873
163	177908	60	-0.045691651757807
163	182357	61	-0.14961301535368
163	186434	62	0.54445745632984
163	190547	63	-0.68718912918121
163	194786	64	0.57137879449874
163	199079	65	-0.53189314738847
163	203477	66	0.18694740626961
163	207977	67	-0.17566430964507
163	212750	68	0.20968512073159
163	217289	69	-0.064025785773993
163	221972	70	0.37234114203602
163	226538	71	0.031506677623838
163	231164	72	-0.46059222100303
163	235586	73	0.67421142174862
163	240236	74	-0.93502839421853
163	244850	75	0.40592726343311
163	249632	76	0.072705285390839
163	254408	77	0.35229792119935
163	259346	78	-0.879673355259
163	264014	79	0.26802028319798
163	268829	80	-0.018970516277477
163	273764	81	0.073915152577683
163	278768	82	0.62954715732485
163	283754	83	-0.041444631060585
163	288587	84	-0.25502785365097
163	293714	85	0.013029433321208
163	298745	86	0.13210170692764
163	303725	87	-0.3928597595077
163	308543	88	0.12761428789236
163	313409	89	-0.49759811349213
163	318351	90	0.73820546711795
163	323044	91	-0.34435492311604
163	327869	92	-0.042556537780911
163	332682	93	-0.21002052770928
[...]
133	837225	238	91.995160538108
133	838778	239	91.093729967435
133	840322	240	89.893327258574
133	841887	241	88.540015213957
133	843467	242	87.492138217373
133	845018	243	86.287136591803
133	846552	244	85.29861451717
133	848047	245	84.552624290815
133	849635	246	83.428306375917
133	851166	247	82.335726491663
133	852784	248	81.151174868545
133	854420	249	80.424942781011
133	855981	250	79.411361055208
133	857539	251	78.481829019312
133	859097	252	77.751688252274
133	860610	253	76.749719237145
133	862192	254	75.686490123191
133	863774	255	74.68038316327
133	865470	256	73.306879666902
133	867079	257	71.992284850392
133	868700	258	70.729239609361
133	870168	259	69.571871347627
133	871711	260	68.251121741162
133	873362	261	67.106178313676
133	874989	262	66.170964903545
133	876598	263	65.394167081664
133	878219	264	64.440452558207
133	879831	265	63.561172908772
133	881449	266	62.452761560239
133	883077	267	61.275496454681
133	884702	268	60.160138493404
133	886273	269	59.118163510193
133	887844	270	57.78847995334
133	889191	271	57.02983836574
133	890577	272	56.076915427162
133	891921	273	55.267283047283
133	893265	274	54.285362993312
133	894591	275	53.402621113526
133	895941	276	52.610370916495
133	897375	277	51.266005009552
133	898749	278	50.418758399434
133	900123	279	49.46130523499
133	901497	280	48.378199605163
133	902922	281	47.290040774884
133	904311	282	46.245260561325
133	905673	283	45.439134092868
133	907056	284	44.589774392234
133	908454	285	43.358505368746
133	909810	286	42.502920804633
133	911196	287	41.477112394601
133	912555	288	40.108074680416
133	913914	289	39.23203964478
133	915273	290	37.989314485528
133	916602	291	36.942450989118
133	917901	292	35.833693006927
133	919212	293	35.078474823301
133	920562	294	34.048489650992
133	921900	295	32.695670258455
133	923172	296	31.934980429047
133	924465	297	30.892427398614
133	925731	298	29.818056396726
133	926958	299	28.578943765991
133	928189	300	27.795969905821
133	929432	301	27.16586277026
133	930675	302	26.509147731885
133	931906	303	26.186523862869
133	933170	304	26.940616277772
133	934434	305	28.040406597054
133	935686	306	29.031478536517
133	936897	307	30.297285573208
133	938135	308	32.219987588869
133	939439	309	34.17456015319
133	940755	310	35.818493878268
133	942071	311	37.740112184578
133	943348	312	39.46053692981
133	944545	313	41.044487517359
133	945757	314	42.201597071051
133	946942	315	43.852101259896
133	948127	316	44.967697009709
133	949261	317	46.102388652772
133	950398	318	47.806387775143
133	951514	319	49.503120407959
133	952618	320	51.224116120985
133	953683	321	53.025631316736
133	954760	322	54.387308838809
133	955837	323	55.437361741703
133	956914	324	56.84257177872
133	957991	325	58.750126224276
133	959026	326	60.723791559258
133	960061	327	62.667480552368
133	961063	328	64.360170892937
133	962107	329	65.974606875274
133	963130	330	67.274645146159
133	964153	331	69.075856431331
133	965176	332	70.39639415899
133	966238	333	71.785837621238
133	967300	334	72.862676584205
133	968374	335	74.075512748488
133	969448	336	75.947425312639
133	970456	337	77.383229448969
133	971464	338	79.001695338447
133	972469	339	80.403820094928
133	973504	340	82.214206120974
133	974524	341	83.414842715996
133	975517	342	84.628397210544
133	976510	343	86.392273287099
133	977503	344	88.299312515693
133	978437	345	89.317656528481
133	979371	346	90.320302846186
133	980305	347	91.680901823841
133	981233	348	92.868149399335
133	982161	349	94.684253969506
133	983089	350	96.482076694068
133	983952	351	97.853046421238
133	984803	352	99.52033418561
133	985654	353	100.98704429487
133	986505	354	102.83331961794
133	987344	355	104.53351718023
133	988183	356	105.46776317388
133	989022	357	106.86835770358
133	989820	358	108.55588951942
133	990618	359	109.72121737294
133	991416	360	111.61695263747
133	992214	361	113.09377669138
133	993012	362	114.49987696707
133	993810	363	115.65724341479
133	994608	364	116.44841717234
133	995439	365	117.55773004078
133	996241	366	119.3222765562
133	997043	367	120.96974902115
133	997845	368	122.82606797483
133	998647	369	123.7834863406
133	999449	370	125.54191931486
133	1000222	371	126.45822938811
133	1001028	372	128.07188459056
133	1001807	373	129.20299715137
133	1002586	374	130.42221271899
133	1003365	375	132.43076224286
133	1004144	376	134.54536736783
133	1004923	377	137.25349563984
133	1005702	378	138.4773632799
133	1006526	379	141.47309154218
133	1007323	380	143.41847765772
133	1008174	381	146.16499371977
133	1008998	382	148.0305666675
133	1009795	383	150.92729959839
133	1010625	384	153.58932465147
133	1011482	385	156.42166701583
133	1012363	386	157.63230873064
133	1013274	387	160.3402954024
133	1014239	388	163.14737182934
133	1015177	389	165.07620483864
133	1016088	390	168.11881073745
133	1016996	391	169.36370711537
133	1017860	392	171.71909608968
133	1018671	393	173.92259846625
133	1019482	394	176.50171524174
133	1020282	395	179.64236613975
133	1021136	396	181.71359958258
133	1021963	397	184.24731880834
133	1022733	398	187.66435308809
133	1023560	399	189.53527866111
133	1024387	400	191.39540136411
133	1025185	401	193.95427197069
133	1025983	402	195.97326206617
133	1026724	403	198.09752646885
133	1027334	404	201.04716093221
133	1027944	405	204.37597292968
133	1028605	406	207.27278606171
133	1029237	407	210.61759154903
133	1029869	408	214.04159154903
133	1030450	409	217.46559154903
133	1031031	410	219.18983424174
133	1031612	411	220.96403432589
133	1032193	412	222.80749386059
133	1032774	413	224.10384624846
133	1033334	414	225.80626144212
133	1033936	415	227.58608291506
133	1034517	416	228.99728167056
133	1035098	417	230.91584983606
133	1035679	418	231.95926634128
133	1036260	419	233.12046906793
133	1036841	420	234.16104124625
133	1037383	421	236.10100838471
133	1037925	422	237.98697071521
133	1038467	423	239.23601225739
133	1039009	424	240.99974305274
133	1039551	425	242.07031772633
133	1040093	426	243.4714035075
133	1040635	427	245.36427439119
133	1041177	428	246.45221792276
133	1041719	429	247.89254999974
133	1042261	430	248.91105687081
133	1042803	431	250.45933015899
133	1043345	432	251.7322088233
133	1043887	433	252.93349876672
133	1044429	434	254.52186064979
133	1044971	435	255.89838064833
133	1045513	436	257.02558336778
133	1046055	437	258.74730993037
133	1046597	438	260.32797771062
133	1047139	439	262.32650870223
133	1047681	440	263.65966172119
133	1048223	441	265.176793996
133	1048738	442	266.68716567707
133	1049253	443	267.79305679885
133	1049768	444	269.01358653231
133	1050283	445	270.10822336235
133	1050798	446	271.37263792868
133	1051313	447	273.24734094481
133	1051828	448	274.85664641623
133	1052343	449	275.99596944729
133	1052858	450	277.89515605148
133	1053373	451	279.86072476579
133	1053888	452	280.90895768114
133	1054403	453	282.81660841218
133	1054918	454	283.89799869781
133	1055433	455	284.93177788261
133	1055948	456	286.74990034195
133	1056463	457	288.36293293208
133	1056978	458	290.15963158708
133	1057493	459	292.08884769048
133	1058008	460	293.30113268479
133	1058523	461	294.83067733281
133	1059038	462	296.04391278069
133	1059553	463	297.99777576582
133	1060068	464	299.03228526677
133	1060583	465	301.01591511442
133	1061098	466	302.01831500347
133	1061613	467	303.45656477356
133	1062128	468	304.95820430246
133	1062643	469	306.74699808493
133	1063158	470	307.78663156995
133	1063673	471	309.16471898112
133	1064188	472	310.34874185965
133	1064703	473	312.01404259539
133	1065218	474	313.25767112312
133	1065733	475	315.1251940911
133	1066248	476	316.75924141657
133	1066763	477	317.77483955979
133	1067278	478	318.92445394162
133	1067793	479	320.67451253252
133	1068308	480	321.7554013864
132	18108	13	126.6
132	20234	14	126.6
132	22482	15	126.6
132	24781	16	126.6
132	27243	17	126.6
132	29769	18	126.6
132	32352	19	126.6
132	35039	20	126.6
132	37942	21	126.6
132	40744	22	126.6
132	43399	23	126.6
132	46292	24	126.6
132	49126	25	126.6
132	52132	26	126.6
132	55164	27	126.6
132	58336	28	126.6
132	61389	29	126.6
132	64722	30	126.6
132	67939	31	126.6
132	71264	32	126.6
132	74604	33	126.6
132	77941	34	126.6
132	81365	35	126.6
132	84744	36	126.6
132	88331	37	126.6
132	91973	38	126.6
132	95666	39	126.6
132	99179	40	126.6
132	102737	41	126.6
132	106373	42	126.6
132	109961	43	126.6
132	113603	44	126.6
132	117374	45	126.6
132	121184	46	126.6
132	125054	47	126.7120540464
132	128951	48	126.88487373015
132	132815	49	127.45943934459
132	136652	50	128.09111494936
132	140645	51	129.41470161639
132	144839	52	130.71848891846
132	148931	53	132.34788073554
132	153155	54	133.63502276228
132	157205	55	135.58698766359
132	161264	56	137.74068870681
132	165410	57	139.90753083325
132	169529	58	141.95500753222
132	173696	59	142.77477712396
132	177908	60	144.18970785577
132	182357	61	146.00785781187
132	186434	62	148.26499082496
132	190547	63	150.12616487543
132	194786	64	151.77832058727
132	199079	65	153.94633984267
132	203477	66	155.44450119508
132	207977	67	157.41432424865
132	212750	68	158.67501964674
132	217289	69	160.98044755991
132	221972	70	162.8825361866
132	226538	71	164.50588652982
132	231164	72	166.61610425253
132	235586	73	168.91181130144
132	240236	74	169.19530880692
132	244850	75	169.56817621023
132	249632	76	169.6491958869
132	254408	77	169.70953775987
132	259346	78	169.71492444924
132	264014	79	169.71653270793
132	268829	80	169.71670192282
132	273764	81	169.71670192282
132	278768	82	169.71670192282
132	283754	83	169.71670192282
132	288587	84	169.71670192282
132	293714	85	169.71670192282
132	298745	86	169.71670192282
132	303725	87	169.71670192282
132	308543	88	169.71670192282
132	313409	89	169.71670192282
132	318351	90	169.71670192282
132	323044	91	169.71670192282
132	327869	92	169.71670192282
132	332682	93	169.71670192282
132	337543	94	169.71670192282
132	342206	95	169.71670192282
132	346863	96	169.71670192282
132	351739	97	169.71670192282
132	356450	98	169.71670192282
132	361071	99	169.71670192282
132	365704	100	169.71670192282
132	370388	101	169.71670192282
132	374958	102	169.71670192282
132	379756	103	169.71670192282
132	384620	104	169.71670192282
132	389697	105	169.71670192282
132	394633	106	170.43938427529
132	399272	107	171.46936247317
132	403833	108	172.93482981956
132	408565	109	174.6143811112
132	413291	110	176.29398412729
132	417906	111	177.30818861053
132	422575	112	178.50354788022
132	427091	113	179.19998822422
132	431733	114	180.42167952001
132	436435	115	181.77739571169
132	441065	116	183.15936972108
132	445329	117	184.62516045507
132	449588	118	185.80984774556
132	454228	119	187.06083229555
132	458550	120	187.0714920092
132	462836	121	187.08108520621
132	467128	122	187.08802424088
132	471616	123	187.0894566202
132	475993	124	187.0903726642
132	480599	125	187.09098221671
132	484992	126	187.09098221671
132	489343	127	187.09098221671
132	493607	128	187.09098221671
132	497763	129	187.09098221671
132	502012	130	187.0911874038
132	506279	131	187.0911874038
132	510474	132	187.0911874038
132	514589	133	187.0911874038
132	518617	134	187.0911874038
132	522747	135	187.0911874038
132	526730	136	187.0911874038
132	530776	137	187.0911874038
132	535023	138	187.0911874038
132	539045	139	187.0911874038
132	542953	140	187.0911874038
132	547023	141	187.0911874038
132	551096	142	187.0911874038
132	555211	143	187.0911874038
132	559162	144	187.0911874038
132	563098	145	187.0911874038
132	566989	146	187.0911874038
132	571030	147	187.0911874038
132	574906	148	187.0911874038
132	578869	149	187.0911874038
132	582718	150	187.0911874038
132	586567	151	187.0911874038
132	590410	152	187.0911874038
132	594475	153	187.0911874038
132	598273	154	187.0911874038
132	602323	155	187.0911874038
132	606172	156	187.0911874038
132	609941	157	187.0911874038
132	613665	158	187.0911874038
132	617395	159	187.0911874038
132	621171	160	187.0911874038
132	624761	161	187.0911874038
132	628408	162	187.71545946166
132	632082	163	188.68135396487
132	635663	164	189.63185016731
132	639232	165	190.84988313084
132	642751	166	192.0439923241
132	646122	167	194.12590200307
132	649479	168	195.58231982151
132	652800	169	195.71831870099
132	656130	170	195.76160369579
132	659445	171	195.76980329677
132	662725	172	195.77636827208
132	666011	173	195.7780802382
132	669486	174	195.99277464186
132	672874	175	196.88167520293
132	676274	176	198.57733266781
132	679815	177	199.64934115346
132	683344	178	200.87215294981
132	686972	179	202.60830143388
132	690525	180	204.2307678561
132	694069	181	204.40251409657
132	697544	182	204.43220497877
132	700920	183	204.45196747287
132	704269	184	204.45977965073
132	707741	185	204.46450383396
132	711075	186	204.46537102423
132	714358	187	204.4656384675
132	717677	188	204.4656384675
132	721068	189	204.4656384675
132	724225	190	204.4656384675
132	727466	191	204.4656384675
132	730662	192	204.4656384675
132	733909	193	204.4656384675
132	737111	194	204.4656384675
132	740257	195	204.46576553139
132	743364	196	204.46576553139
132	746558	197	205.41845040914
132	749833	198	207.67385080008
132	753004	199	208.61275342836
132	756233	200	210.92903914265
132	759334	201	212.781861144
132	762300	202	214.36964374903
132	765051	203	215.49836423104
132	767721	204	217.1622484332
132	770376	205	218.40225038096
132	772980	206	219.66029597151
132	775605	207	220.4677885323
132	778137	208	221.47946767801
132	780574	209	222.14103720871
132	783074	210	221.91055868694
132	785302	211	221.76046338079
132	787464	212	221.07454801061
132	789612	213	220.12415244665
132	791836	214	219.27250019674
132	794123	215	218.28373399378
132	796149	216	217.34125433739
132	798346	217	216.3921466576
132	800414	218	215.57857039171
132	802398	219	214.41007867148
132	804400	220	213.21445967852
132	806582	221	211.95578325466
132	808519	222	211.09378041616
132	810366	223	210.10958725142
132	812174	224	209.35952584027
132	814048	225	208.61861777915
132	815970	226	207.59901790632
132	817793	227	206.4709014473
132	819589	228	205.09425073631
132	821400	229	204.274436035
132	823211	230	203.44553447616
132	825037	231	202.1555033125
132	826869	232	200.74643344145
132	828872	233	199.8343256176
132	830662	234	198.72337834545
132	832409	235	197.86564540166
132	834054	236	196.70896557658
132	835666	237	195.62800003726
132	837225	238	194.25516053811
132	838778	239	193.35372996744
132	840322	240	192.15332725857
132	841887	241	190.80001521396
132	843467	242	189.75213821737
132	845018	243	188.5471365918
132	846552	244	187.55861451717
132	848047	245	186.81262429082
132	849635	246	185.68830637592
132	851166	247	184.59572649166
132	852784	248	183.41117486854
132	854420	249	182.68494278101
132	855981	250	181.67136105521
132	857539	251	180.74182901931
132	859097	252	180.01168825227
132	860610	253	179.00971923714
132	862192	254	177.94649012319
132	863774	255	176.94038316327
132	865470	256	175.5668796669
132	867079	257	174.25228485039
132	868700	258	172.98923960936
132	870168	259	171.83187134763
132	871711	260	170.51112174116
132	873362	261	169.36617831368
132	874989	262	168.43096490354
132	876598	263	167.65416708166
132	878219	264	166.70045255821
132	879831	265	165.82117290877
132	881449	266	164.71276156024
132	883077	267	163.53549645468
132	884702	268	162.4201384934
132	886273	269	161.37816351019
132	887844	270	160.04847995334
132	889191	271	159.28983836574
132	890577	272	158.33691542716
132	891921	273	157.52728304728
132	893265	274	156.54536299331
132	894591	275	155.66262111353
132	895941	276	154.87037091649
132	897375	277	153.52600500955
132	898749	278	152.67875839943
132	900123	279	151.72130523499
132	901497	280	150.63819960516
132	902922	281	149.55004077488
132	904311	282	148.50526056132
132	905673	283	147.69913409287
132	907056	284	146.84977439223
132	908454	285	145.61850536875
132	909810	286	144.76292080463
132	911196	287	143.7371123946
132	912555	288	142.36807468042
132	913914	289	141.49203964478
132	915273	290	140.24931448553
132	916602	291	139.20245098912
132	917901	292	138.09369300693
132	919212	293	137.3384748233
132	920562	294	136.30848965099
132	921900	295	134.95567025845
132	923172	296	134.19498042905
132	924465	297	133.15242739861
132	925731	298	132.07805639673
132	926958	299	130.64986667211
132	928189	300	129.66978051148
132	929432	301	128.88104500613
132	930675	302	128.05900310495
132	931906	303	126.1492335614
132	933170	304	124.81586169006
132	934434	305	124.00548987585
132	935686	306	123.81365042684
132	936897	307	123.672079903
132	938135	308	123.45704086177
132	939439	309	123.4
132	940755	310	123.4
132	942071	311	123.4
132	943348	312	123.4
132	944545	313	123.4
132	945757	314	123.4
132	946942	315	123.4
132	948127	316	123.4
132	949261	317	123.4
132	950398	318	123.4
132	951514	319	123.4
132	952618	320	123.4
132	953683	321	123.4
132	954760	322	123.4
132	955837	323	123.4
132	956914	324	123.4
132	957991	325	123.4
132	959026	326	123.4
132	960061	327	123.4
132	961063	328	123.4
132	962107	329	123.4
132	963130	330	123.4
132	964153	331	123.4
132	965176	332	123.4
132	966238	333	123.4
132	967300	334	123.4
132	968374	335	123.4
132	969448	336	123.4
132	970456	337	123.4
132	971464	338	123.4
132	972469	339	123.4
132	973504	340	123.4
132	974524	341	123.4
132	975517	342	123.4
132	976510	343	123.4
132	977503	344	123.4
132	978437	345	123.4
132	979371	346	123.4
132	980305	347	123.4
132	981233	348	123.4
132	982161	349	123.4
132	983089	350	123.4
132	983952	351	123.4
132	984803	352	123.4
132	985654	353	123.4
132	986505	354	123.4
132	987344	355	123.4
132	988183	356	123.4
132	989022	357	123.4
132	989820	358	123.4
132	990618	359	123.4
132	991416	360	123.4
132	992214	361	123.4
132	993012	362	123.4
132	993810	363	123.4
132	994608	364	123.4
132	995439	365	123.4
132	996241	366	123.4
132	997043	367	123.4
132	997845	368	123.4
132	998647	369	123.4
132	999449	370	123.4
132	1000222	371	123.4
132	1001028	372	123.4
132	1001807	373	123.4
132	1002586	374	123.4
132	1003365	375	123.4
132	1004144	376	123.4
132	1004923	377	123.4
132	1005702	378	123.4
132	1006526	379	123.4
132	1007323	380	123.4
132	1008174	381	123.4
132	1008998	382	123.4
132	1009795	383	123.4
132	1010625	384	123.4
132	1011482	385	123.4
132	1012363	386	123.4
132	1013274	387	123.4
132	1014239	388	123.4
132	1015177	389	123.4
132	1016088	390	123.4
132	1016996	391	123.4
132	1017860	392	123.4
132	1018671	393	123.4
132	1019482	394	123.4
132	1020282	395	123.4
132	1021136	396	123.4
132	1021963	397	123.4
132	1022733	398	123.4
132	1023560	399	123.4
132	1024387	400	123.4
132	1025185	401	123.4
132	1025983	402	123.4
132	1026724	403	123.4
132	1027334	404	123.4
132	1027944	405	123.4
132	1028605	406	123.4
132	1029237	407	123.4
132	1029869	408	123.4
132	1030450	409	123.4
132	1031031	410	123.4
132	1031612	411	123.4
132	1032193	412	123.4
132	1032774	413	123.4
132	1033334	414	123.4
132	1033936	415	123.4
132	1034517	416	123.4
132	1035098	417	123.4
132	1035679	418	123.4
132	1036260	419	123.4
132	1036841	420	123.4
132	1037383	421	123.4
132	1037925	422	123.4
132	1038467	423	123.4
132	1039009	424	123.4
132	1039551	425	123.4
132	1040093	426	123.4
132	1040635	427	123.4
132	1041177	428	123.4
132	1041719	429	123.4
132	1042261	430	123.4
132	1042803	431	123.4
132	1043345	432	123.4
132	1043887	433	123.4
132	1044429	434	123.4
132	1044971	435	123.4
132	1045513	436	123.4
132	1046055	437	123.4
132	1046597	438	123.4
132	1047139	439	123.4
132	1047681	440	123.4
132	1048223	441	123.4
132	1048738	442	123.4
132	1049253	443	123.4
132	1049768	444	123.4
132	1050283	445	123.4
132	1050798	446	123.4
132	1051313	447	123.4
132	1051828	448	123.4
132	1052343	449	123.4
132	1052858	450	123.4
132	1053373	451	123.4
132	1053888	452	123.4
132	1054403	453	123.4
132	1054918	454	123.4
132	1055433	455	123.4
132	1055948	456	123.4
132	1056463	457	123.4
132	1056978	458	123.4
132	1057493	459	123.4
132	1058008	460	123.4
132	1058523	461	123.4
132	1059038	462	123.4
132	1059553	463	123.4
132	1060068	464	123.4
132	1060583	465	123.4
132	1061098	466	123.4
132	1061613	467	123.4
132	1062128	468	123.4
132	1062643	469	123.4
132	1063158	470	123.4
132	1063673	471	123.4
132	1064188	472	123.4
132	1064703	473	123.4
132	1065218	474	123.4
132	1065733	475	123.4
132	1066248	476	123.4
132	1066763	477	123.4
132	1067278	478	123.4
132	1067793	479	123.4
132	1068308	480	123.4

